Global frequency set at 1000000000000 ticks per second
      0: system.cpu.iq: IQ sharing policy set to Partitioned:64 entries per thread.
gem5 Simulator System.  https://www.gem5.org
gem5 is copyrighted software; use the --copyright option for details.

gem5 version 22.0.0.2
gem5 compiled Nov 29 2024 17:17:49
gem5 started Nov 29 2024 17:20:34
gem5 executing on qstruct.ecn.purdue.edu, pid 19274
command line: ./build/ECE565-ARM/gem5.opt --debug-flags=IQ configs/spec/spec_se.py -b sjeng --maxinsts=5000 --cpu-type=O3CPU --l1d_size=64kB --l1i_size=16kB --caches --l2cache

**** REAL SIMULATION ****
      0: system.cpu.iq: Attempting to schedule ready instructions from the IQ.
      0: system.cpu.iq: Not able to schedule any instructions.
    500: system.cpu.iq: [tid:0] Starting to squash instructions in the IQ.
    500: system.cpu.iq: [tid:0] Squashing until sequence number 0!
    500: system.cpu.iq: [tid:0] Squashing until sequence number 0!
    500: system.cpu.iq: Attempting to schedule ready instructions from the IQ.
    500: system.cpu.iq: Not able to schedule any instructions.
   1000: system.cpu.iq: Attempting to schedule ready instructions from the IQ.
   1000: system.cpu.iq: Not able to schedule any instructions.
   1500: system.cpu.iq: Attempting to schedule ready instructions from the IQ.
   1500: system.cpu.iq: Not able to schedule any instructions.
   2000: system.cpu.iq: Attempting to schedule ready instructions from the IQ.
   2000: system.cpu.iq: Not able to schedule any instructions.
   2500: system.cpu.iq: Attempting to schedule ready instructions from the IQ.
   2500: system.cpu.iq: Not able to schedule any instructions.
   3000: system.cpu.iq: Attempting to schedule ready instructions from the IQ.
   3000: system.cpu.iq: Not able to schedule any instructions.
   3500: system.cpu.iq: Attempting to schedule ready instructions from the IQ.
   3500: system.cpu.iq: Not able to schedule any instructions.
   4000: system.cpu.iq: Attempting to schedule ready instructions from the IQ.
   4000: system.cpu.iq: Not able to schedule any instructions.
   4500: system.cpu.iq: Attempting to schedule ready instructions from the IQ.
   4500: system.cpu.iq: Not able to schedule any instructions.
   5000: system.cpu.iq: Attempting to schedule ready instructions from the IQ.
   5000: system.cpu.iq: Not able to schedule any instructions.
   5500: system.cpu.iq: Attempting to schedule ready instructions from the IQ.
   5500: system.cpu.iq: Not able to schedule any instructions.
  89000: system.cpu.iq: Attempting to schedule ready instructions from the IQ.
  89000: system.cpu.iq: Not able to schedule any instructions.
  89500: system.cpu.iq: Attempting to schedule ready instructions from the IQ.
  89500: system.cpu.iq: Not able to schedule any instructions.
  90000: global: [sn:3] has 1 ready out of 2 sources. RTI 0)
  90000: global: [sn:3] has 2 ready out of 2 sources. RTI 0)
  90000: system.cpu.iq: Attempting to schedule ready instructions from the IQ.
  90000: system.cpu.iq: Not able to schedule any instructions.
  90500: system.cpu.iq: Attempting to schedule ready instructions from the IQ.
  90500: system.cpu.iq: Not able to schedule any instructions.
  91000: system.cpu.iq: Adding instruction [sn:1] PC (0x401ef4=>0x401ef8).(0=>1) to the IQ.
  91000: system.cpu.iq: Instruction is ready to issue, putting it onto the ready list, PC (0x401ef4=>0x401ef8).(0=>1) opclass:1 [sn:1].
  91000: system.cpu.iq: Adding instruction [sn:2] PC (0x401ef8=>0x401efc).(0=>1) to the IQ.
  91000: system.cpu.iq: Instruction is ready to issue, putting it onto the ready list, PC (0x401ef8=>0x401efc).(0=>1) opclass:1 [sn:2].
  91000: system.cpu.iq: Adding instruction [sn:3] PC (0x401efc=>0x401f00).(0=>1) to the IQ.
  91000: system.cpu.iq: Instruction is ready to issue, putting it onto the ready list, PC (0x401efc=>0x401f00).(0=>1) opclass:1 [sn:3].
  91000: system.cpu.iq: Attempting to schedule ready instructions from the IQ.
  91000: system.cpu.iq: Thread 0: Issuing instruction PC (0x401ef4=>0x401ef8).(0=>1) [sn:1]
  91000: system.cpu.iq: Thread 0: Issuing instruction PC (0x401ef8=>0x401efc).(0=>1) [sn:2]
  91000: system.cpu.iq: Thread 0: Issuing instruction PC (0x401efc=>0x401f00).(0=>1) [sn:3]
  91500: system.cpu.iq: Waking dependents of completed instruction.
  91500: system.cpu.iq: Waking any dependents on register 42 (IntRegClass).
  91500: system.cpu.iq: Waking dependents of completed instruction.
  91500: system.cpu.iq: Waking any dependents on register 43 (IntRegClass).
  91500: system.cpu.iq: Waking dependents of completed instruction.
  91500: system.cpu.iq: Waking any dependents on register 44 (IntRegClass).
  91500: system.cpu.iq: Attempting to schedule ready instructions from the IQ.
  91500: system.cpu.iq: Not able to schedule any instructions.
  92000: system.cpu.iq: Attempting to schedule ready instructions from the IQ.
  92000: system.cpu.iq: Not able to schedule any instructions.
  92500: system.cpu.iq: Attempting to schedule ready instructions from the IQ.
  92500: system.cpu.iq: Not able to schedule any instructions.
  93000: system.cpu.iq: Attempting to schedule ready instructions from the IQ.
  93000: system.cpu.iq: Not able to schedule any instructions.
  93000: system.cpu.iq: [tid:0] Committing instructions older than [sn:3]
  93500: system.cpu.iq: Attempting to schedule ready instructions from the IQ.
  93500: system.cpu.iq: Not able to schedule any instructions.
  94000: system.cpu.iq: Attempting to schedule ready instructions from the IQ.
  94000: system.cpu.iq: Not able to schedule any instructions.
  94500: system.cpu.iq: Attempting to schedule ready instructions from the IQ.
  94500: system.cpu.iq: Not able to schedule any instructions.
  95000: system.cpu.iq: Attempting to schedule ready instructions from the IQ.
  95000: system.cpu.iq: Not able to schedule any instructions.
  95500: system.cpu.iq: Attempting to schedule ready instructions from the IQ.
  95500: system.cpu.iq: Not able to schedule any instructions.
  96000: system.cpu.iq: Attempting to schedule ready instructions from the IQ.
  96000: system.cpu.iq: Not able to schedule any instructions.
  96500: system.cpu.iq: Attempting to schedule ready instructions from the IQ.
  96500: system.cpu.iq: Not able to schedule any instructions.
  97000: system.cpu.iq: Attempting to schedule ready instructions from the IQ.
  97000: system.cpu.iq: Not able to schedule any instructions.
  97500: system.cpu.iq: Attempting to schedule ready instructions from the IQ.
  97500: system.cpu.iq: Not able to schedule any instructions.
  98000: system.cpu.iq: Attempting to schedule ready instructions from the IQ.
  98000: system.cpu.iq: Not able to schedule any instructions.
  98500: system.cpu.iq: Attempting to schedule ready instructions from the IQ.
  98500: system.cpu.iq: Not able to schedule any instructions.
 161500: system.cpu.iq: Attempting to schedule ready instructions from the IQ.
 161500: system.cpu.iq: Not able to schedule any instructions.
 162000: system.cpu.iq: Attempting to schedule ready instructions from the IQ.
 162000: system.cpu.iq: Not able to schedule any instructions.
 162500: global: [sn:4] has 1 ready out of 1 sources. RTI 0)
 162500: global: [sn:5] has 1 ready out of 1 sources. RTI 0)
 162500: global: [sn:6] has 1 ready out of 1 sources. RTI 0)
 162500: system.cpu.iq: Attempting to schedule ready instructions from the IQ.
 162500: system.cpu.iq: Not able to schedule any instructions.
 163000: system.cpu.iq: Attempting to schedule ready instructions from the IQ.
 163000: system.cpu.iq: Not able to schedule any instructions.
 163500: system.cpu.iq: Adding instruction [sn:4] PC (0x401f00=>0x401f04).(0=>1) to the IQ.
 163500: system.cpu.iq: Instruction is ready to issue, putting it onto the ready list, PC (0x401f00=>0x401f04).(0=>1) opclass:47 [sn:4].
 163500: system.cpu.iq: Adding instruction [sn:5] PC (0x401f04=>0x401f08).(0=>1) to the IQ.
 163500: system.cpu.iq: Instruction is ready to issue, putting it onto the ready list, PC (0x401f04=>0x401f08).(0=>1) opclass:1 [sn:5].
 163500: system.cpu.iq: Adding instruction [sn:6] PC (0x401f08=>0x401f0c).(0=>1) to the IQ.
 163500: system.cpu.iq: Instruction is ready to issue, putting it onto the ready list, PC (0x401f08=>0x401f0c).(0=>1) opclass:1 [sn:6].
 163500: system.cpu.iq: Adding instruction [sn:7] PC (0x401f0c=>0x401f10).(0=>1) to the IQ.
 163500: system.cpu.iq: Instruction is ready to issue, putting it onto the ready list, PC (0x401f0c=>0x401f10).(0=>1) opclass:1 [sn:7].
 163500: system.cpu.iq: Adding instruction [sn:8] PC (0x401f10=>0x401f14).(0=>1) to the IQ.
 163500: system.cpu.iq: Instruction PC (0x401f10=>0x401f14).(0=>1) has src reg 48 (IntRegClass) that is being added to the dependency chain.
 163500: system.cpu.iq: Adding instruction [sn:9] PC (0x401f14=>0x401f18).(0=>1) to the IQ.
 163500: system.cpu.iq: Instruction PC (0x401f14=>0x401f18).(0=>1) has src reg 49 (IntRegClass) that is being added to the dependency chain.
 163500: system.cpu.iq: Adding instruction [sn:10] PC (0x401f18=>0x401f1c).(0=>1) to the IQ.
 163500: system.cpu.iq: Instruction PC (0x401f18=>0x401f1c).(0=>1) has src reg 50 (IntRegClass) that is being added to the dependency chain.
 163500: system.cpu.iq: Adding instruction [sn:11] PC (0x401f1c=>0x401f20).(0=>1) to the IQ.
 163500: system.cpu.iq: Instruction is ready to issue, putting it onto the ready list, PC (0x401f1c=>0x401f20).(0=>1) opclass:1 [sn:11].
 163500: system.cpu.iq: Attempting to schedule ready instructions from the IQ.
 163500: system.cpu.iq: Thread 0: Issuing instruction PC (0x401f00=>0x401f04).(0=>1) [sn:4]
 163500: system.cpu.iq: Thread 0: Issuing instruction PC (0x401f04=>0x401f08).(0=>1) [sn:5]
 163500: system.cpu.iq: Thread 0: Issuing instruction PC (0x401f08=>0x401f0c).(0=>1) [sn:6]
 163500: system.cpu.iq: Thread 0: Issuing instruction PC (0x401f0c=>0x401f10).(0=>1) [sn:7]
 163500: system.cpu.iq: Thread 0: Issuing instruction PC (0x401f1c=>0x401f20).(0=>1) [sn:11]
 164000: system.cpu.iq: Adding instruction [sn:12] PC (0x401f20=>0x401f24).(0=>1) to the IQ.
 164000: system.cpu.iq: Instruction PC (0x401f20=>0x401f24).(0=>1) has src reg 52 (IntRegClass) that is being added to the dependency chain.
 164000: system.cpu.iq: Adding instruction [sn:13] PC (0x401f24=>0x401f28).(0=>1) to the IQ.
 164000: system.cpu.iq: Instruction PC (0x401f24=>0x401f28).(0=>1) has src reg 53 (IntRegClass) that is being added to the dependency chain.
 164000: system.cpu.iq: Adding instruction [sn:14] PC (0x401f28=>0x401f2c).(0=>1) to the IQ.
 164000: system.cpu.iq: Instruction PC (0x401f28=>0x401f2c).(0=>1) has src reg 54 (IntRegClass) that is being added to the dependency chain.
 164000: system.cpu.iq: Adding instruction [sn:15] PC (0x401f2c=>0x401f30).(0=>1) to the IQ.
 164000: system.cpu.iq: Instruction is ready to issue, putting it onto the ready list, PC (0x401f2c=>0x401f30).(0=>1) opclass:1 [sn:15].
 164000: system.cpu.iq: Adding instruction [sn:16] PC (0x401f30=>0x401f34).(0=>1) to the IQ.
 164000: system.cpu.iq: Instruction PC (0x401f30=>0x401f34).(0=>1) has src reg 56 (IntRegClass) that is being added to the dependency chain.
 164000: system.cpu.iq: Adding instruction [sn:17] PC (0x401f34=>0x401f38).(0=>1) to the IQ.
 164000: system.cpu.iq: Instruction PC (0x401f34=>0x401f38).(0=>1) has src reg 57 (IntRegClass) that is being added to the dependency chain.
 164000: system.cpu.iq: Adding instruction [sn:18] PC (0x401f38=>0x401f3c).(0=>1) to the IQ.
 164000: system.cpu.iq: Instruction PC (0x401f38=>0x401f3c).(0=>1) has src reg 58 (IntRegClass) that is being added to the dependency chain.
 164000: system.cpu.iq: Adding instruction [sn:19] PC (0x401f3c=>0x401f40).(0=>1) to the IQ.
 164000: system.cpu.iq: Instruction is ready to issue, putting it onto the ready list, PC (0x401f3c=>0x401f40).(0=>1) opclass:1 [sn:19].
 164000: system.cpu.iq: Waking dependents of completed instruction.
 164000: system.cpu.iq: Waking any dependents on register 46 (IntRegClass).
 164000: system.cpu.iq: Waking dependents of completed instruction.
 164000: system.cpu.iq: Waking any dependents on register 47 (IntRegClass).
 164000: system.cpu.iq: Waking dependents of completed instruction.
 164000: system.cpu.iq: Waking any dependents on register 48 (IntRegClass).
 164000: system.cpu.iq: Waking up a dependent instruction, [sn:8] PC (0x401f10=>0x401f14).(0=>1).
 164000: global: [sn:8] has 1 ready out of 1 sources. RTI 0)
 164000: system.cpu.iq: Instruction is ready to issue, putting it onto the ready list, PC (0x401f10=>0x401f14).(0=>1) opclass:1 [sn:8].
 164000: system.cpu.iq: Waking dependents of completed instruction.
 164000: system.cpu.iq: Waking any dependents on register 52 (IntRegClass).
 164000: system.cpu.iq: Waking up a dependent instruction, [sn:12] PC (0x401f20=>0x401f24).(0=>1).
 164000: global: [sn:12] has 1 ready out of 1 sources. RTI 0)
 164000: system.cpu.iq: Instruction is ready to issue, putting it onto the ready list, PC (0x401f20=>0x401f24).(0=>1) opclass:1 [sn:12].
 164000: system.cpu.iq: Attempting to schedule ready instructions from the IQ.
 164000: system.cpu.iq: Thread 0: Issuing instruction PC (0x401f10=>0x401f14).(0=>1) [sn:8]
 164000: system.cpu.iq: Thread 0: Issuing instruction PC (0x401f20=>0x401f24).(0=>1) [sn:12]
 164000: system.cpu.iq: Thread 0: Issuing instruction PC (0x401f2c=>0x401f30).(0=>1) [sn:15]
 164000: system.cpu.iq: Thread 0: Issuing instruction PC (0x401f3c=>0x401f40).(0=>1) [sn:19]
 164500: system.cpu.iq: Waking dependents of completed instruction.
 164500: system.cpu.iq: Waking any dependents on register 49 (IntRegClass).
 164500: system.cpu.iq: Waking up a dependent instruction, [sn:9] PC (0x401f14=>0x401f18).(0=>1).
 164500: global: [sn:9] has 1 ready out of 1 sources. RTI 0)
 164500: system.cpu.iq: Instruction is ready to issue, putting it onto the ready list, PC (0x401f14=>0x401f18).(0=>1) opclass:1 [sn:9].
 164500: system.cpu.iq: Waking dependents of completed instruction.
 164500: system.cpu.iq: Waking any dependents on register 53 (IntRegClass).
 164500: system.cpu.iq: Waking up a dependent instruction, [sn:13] PC (0x401f24=>0x401f28).(0=>1).
 164500: global: [sn:13] has 1 ready out of 1 sources. RTI 0)
 164500: system.cpu.iq: Instruction is ready to issue, putting it onto the ready list, PC (0x401f24=>0x401f28).(0=>1) opclass:1 [sn:13].
 164500: system.cpu.iq: Waking dependents of completed instruction.
 164500: system.cpu.iq: Waking any dependents on register 56 (IntRegClass).
 164500: system.cpu.iq: Waking up a dependent instruction, [sn:16] PC (0x401f30=>0x401f34).(0=>1).
 164500: global: [sn:16] has 1 ready out of 1 sources. RTI 0)
 164500: system.cpu.iq: Instruction is ready to issue, putting it onto the ready list, PC (0x401f30=>0x401f34).(0=>1) opclass:1 [sn:16].
 164500: system.cpu.iq: Waking dependents of completed instruction.
 164500: system.cpu.iq: Waking any dependents on register 60 (IntRegClass).
 164500: system.cpu.iq: Attempting to schedule ready instructions from the IQ.
 164500: system.cpu.iq: Thread 0: Issuing instruction PC (0x401f14=>0x401f18).(0=>1) [sn:9]
 164500: system.cpu.iq: Thread 0: Issuing instruction PC (0x401f24=>0x401f28).(0=>1) [sn:13]
 164500: system.cpu.iq: Thread 0: Issuing instruction PC (0x401f30=>0x401f34).(0=>1) [sn:16]
 165000: system.cpu.iq: Waking dependents of completed instruction.
 165000: system.cpu.iq: Waking any dependents on register 50 (IntRegClass).
 165000: system.cpu.iq: Waking up a dependent instruction, [sn:10] PC (0x401f18=>0x401f1c).(0=>1).
 165000: global: [sn:10] has 1 ready out of 1 sources. RTI 0)
 165000: system.cpu.iq: Instruction is ready to issue, putting it onto the ready list, PC (0x401f18=>0x401f1c).(0=>1) opclass:1 [sn:10].
 165000: system.cpu.iq: Waking dependents of completed instruction.
 165000: system.cpu.iq: Waking any dependents on register 54 (IntRegClass).
 165000: system.cpu.iq: Waking up a dependent instruction, [sn:14] PC (0x401f28=>0x401f2c).(0=>1).
 165000: global: [sn:14] has 1 ready out of 1 sources. RTI 0)
 165000: system.cpu.iq: Instruction is ready to issue, putting it onto the ready list, PC (0x401f28=>0x401f2c).(0=>1) opclass:1 [sn:14].
 165000: system.cpu.iq: Waking dependents of completed instruction.
 165000: system.cpu.iq: Waking any dependents on register 57 (IntRegClass).
 165000: system.cpu.iq: Waking up a dependent instruction, [sn:17] PC (0x401f34=>0x401f38).(0=>1).
 165000: global: [sn:17] has 1 ready out of 1 sources. RTI 0)
 165000: system.cpu.iq: Instruction is ready to issue, putting it onto the ready list, PC (0x401f34=>0x401f38).(0=>1) opclass:1 [sn:17].
 165000: system.cpu.iq: Attempting to schedule ready instructions from the IQ.
 165000: system.cpu.iq: Thread 0: Issuing instruction PC (0x401f18=>0x401f1c).(0=>1) [sn:10]
 165000: system.cpu.iq: Thread 0: Issuing instruction PC (0x401f28=>0x401f2c).(0=>1) [sn:14]
 165000: system.cpu.iq: Thread 0: Issuing instruction PC (0x401f34=>0x401f38).(0=>1) [sn:17]
 165500: system.cpu.iq: Waking dependents of completed instruction.
 165500: system.cpu.iq: Waking any dependents on register 51 (IntRegClass).
 165500: system.cpu.iq: Waking dependents of completed instruction.
 165500: system.cpu.iq: Waking any dependents on register 55 (IntRegClass).
 165500: system.cpu.iq: Waking dependents of completed instruction.
 165500: system.cpu.iq: Waking any dependents on register 58 (IntRegClass).
 165500: system.cpu.iq: Waking up a dependent instruction, [sn:18] PC (0x401f38=>0x401f3c).(0=>1).
 165500: global: [sn:18] has 1 ready out of 1 sources. RTI 0)
 165500: system.cpu.iq: Instruction is ready to issue, putting it onto the ready list, PC (0x401f38=>0x401f3c).(0=>1) opclass:1 [sn:18].
 165500: system.cpu.iq: Attempting to schedule ready instructions from the IQ.
 165500: system.cpu.iq: Thread 0: Issuing instruction PC (0x401f38=>0x401f3c).(0=>1) [sn:18]
 166000: system.cpu.iq: Waking dependents of completed instruction.
 166000: system.cpu.iq: Waking any dependents on register 59 (IntRegClass).
 166000: system.cpu.iq: Attempting to schedule ready instructions from the IQ.
 166000: system.cpu.iq: Not able to schedule any instructions.
 166500: system.cpu.iq: Attempting to schedule ready instructions from the IQ.
 166500: system.cpu.iq: Not able to schedule any instructions.
 167000: system.cpu.iq: Attempting to schedule ready instructions from the IQ.
 167000: system.cpu.iq: Not able to schedule any instructions.
 167500: system.cpu.iq: Attempting to schedule ready instructions from the IQ.
 167500: system.cpu.iq: Not able to schedule any instructions.
 168000: system.cpu.iq: Attempting to schedule ready instructions from the IQ.
 168000: system.cpu.iq: Not able to schedule any instructions.
 168500: system.cpu.iq: Attempting to schedule ready instructions from the IQ.
 168500: system.cpu.iq: Not able to schedule any instructions.
 169000: system.cpu.iq: Attempting to schedule ready instructions from the IQ.
 169000: system.cpu.iq: Not able to schedule any instructions.
 169500: system.cpu.iq: Attempting to schedule ready instructions from the IQ.
 169500: system.cpu.iq: Not able to schedule any instructions.
 170000: system.cpu.iq: Attempting to schedule ready instructions from the IQ.
 170000: system.cpu.iq: Not able to schedule any instructions.
 170500: system.cpu.iq: Attempting to schedule ready instructions from the IQ.
 170500: system.cpu.iq: Not able to schedule any instructions.
 171000: system.cpu.iq: Attempting to schedule ready instructions from the IQ.
 171000: system.cpu.iq: Not able to schedule any instructions.
 249500: system.cpu.iq: Attempting to schedule ready instructions from the IQ.
 249500: system.cpu.iq: Not able to schedule any instructions.
 250000: system.cpu.iq: Attempting to schedule ready instructions from the IQ.
 250000: system.cpu.iq: Not able to schedule any instructions.
 250500: global: [sn:20] has 1 ready out of 1 sources. RTI 0)
 250500: global: [sn:21] has 1 ready out of 2 sources. RTI 0)
 250500: global: [sn:22] has 1 ready out of 2 sources. RTI 0)
 250500: system.cpu.iq: Attempting to schedule ready instructions from the IQ.
 250500: system.cpu.iq: Not able to schedule any instructions.
 251000: global: [sn:28] has 1 ready out of 2 sources. RTI 0)
 251000: global: [sn:29] has 1 ready out of 2 sources. RTI 0)
 251000: global: [sn:30] has 1 ready out of 2 sources. RTI 0)
 251000: global: [sn:30] has 2 ready out of 2 sources. RTI 0)
 251000: global: [sn:32] has 1 ready out of 2 sources. RTI 0)
 251000: global: [sn:33] has 1 ready out of 2 sources. RTI 0)
 251000: global: [sn:34] has 1 ready out of 2 sources. RTI 0)
 251000: global: [sn:34] has 2 ready out of 2 sources. RTI 0)
 251000: global: [sn:35] has 1 ready out of 2 sources. RTI 0)
 251000: global: [sn:35] has 2 ready out of 2 sources. RTI 0)
 251000: system.cpu.iq: Attempting to schedule ready instructions from the IQ.
 251000: system.cpu.iq: Not able to schedule any instructions.
 251500: global: [sn:37] has 1 ready out of 2 sources. RTI 0)
 251500: global: [sn:38] has 1 ready out of 2 sources. RTI 0)
 251500: global: [sn:40] has 1 ready out of 2 sources. RTI 0)
 251500: global: [sn:41] has 1 ready out of 2 sources. RTI 0)
 251500: global: [sn:42] has 1 ready out of 2 sources. RTI 0)
 251500: system.cpu.iq: Adding instruction [sn:20] PC (0x418500=>0x418504).(0=>1) to the IQ.
 251500: system.cpu.iq: Instruction is ready to issue, putting it onto the ready list, PC (0x418500=>0x418504).(0=>1) opclass:1 [sn:20].
 251500: system.cpu.iq: Adding instruction [sn:21] PC (0x418500=>0x418504).(1=>2) to the IQ.
 251500: system.cpu.iq: Instruction PC (0x418500=>0x418504).(1=>2) has src reg 61 (IntRegClass) that is being added to the dependency chain.
 251500: system.cpu.iq: Adding instruction [sn:22] PC (0x418500=>0x418504).(2=>3) to the IQ.
 251500: system.cpu.iq: Instruction PC (0x418500=>0x418504).(2=>3) has src reg 61 (IntRegClass) that is being added to the dependency chain.
 251500: system.cpu.iq: Adding instruction [sn:23] PC (0x418500=>0x418504).(3=>4) to the IQ.
 251500: system.cpu.iq: Instruction PC (0x418500=>0x418504).(3=>4) has src reg 61 (IntRegClass) that is being added to the dependency chain.
 251500: system.cpu.iq: Adding instruction [sn:24] PC (0x418504=>0x418508).(0=>1) to the IQ.
 251500: system.cpu.iq: Instruction is ready to issue, putting it onto the ready list, PC (0x418504=>0x418508).(0=>1) opclass:1 [sn:24].
 251500: system.cpu.iq: Adding instruction [sn:25] PC (0x418508=>0x41850c).(0=>1) to the IQ.
 251500: system.cpu.iq: Instruction PC (0x418508=>0x41850c).(0=>1) has src reg 62 (IntRegClass) that is being added to the dependency chain.
 251500: system.cpu.iq: Adding instruction [sn:26] PC (0x41850c=>0x418510).(0=>1) to the IQ.
 251500: system.cpu.iq: Instruction PC (0x41850c=>0x418510).(0=>1) has src reg 63 (IntRegClass) that is being added to the dependency chain.
 251500: system.cpu.iq: Adding instruction [sn:27] PC (0x418510=>0x418514).(0=>1) to the IQ.
 251500: system.cpu.iq: Instruction PC (0x418510=>0x418514).(0=>1) has src reg 62 (IntRegClass) that is being added to the dependency chain.
 251500: system.cpu.iq: Attempting to schedule ready instructions from the IQ.
 251500: system.cpu.iq: Thread 0: Issuing instruction PC (0x418500=>0x418504).(0=>1) [sn:20]
 251500: system.cpu.iq: Thread 0: Issuing instruction PC (0x418504=>0x418508).(0=>1) [sn:24]
 252000: global: [sn:46] has 1 ready out of 2 sources. RTI 0)
 252000: global: [sn:47] has 1 ready out of 2 sources. RTI 0)
 252000: system.cpu.iq: Adding instruction [sn:28] PC (0x418510=>0x418514).(1=>2) to the IQ.
 252000: system.cpu.iq: Instruction PC (0x418510=>0x418514).(1=>2) has src reg 66 (IntRegClass) that is being added to the dependency chain.
 252000: system.cpu.iq: Adding instruction [sn:29] PC (0x418510=>0x418514).(2=>3) to the IQ.
 252000: system.cpu.iq: Instruction PC (0x418510=>0x418514).(2=>3) has src reg 66 (IntRegClass) that is being added to the dependency chain.
 252000: system.cpu.iq: Adding instruction [sn:30] PC (0x418514=>0x418518).(0=>1) to the IQ.
 252000: system.cpu.iq: Instruction is ready to issue, putting it onto the ready list, PC (0x418514=>0x418518).(0=>1) opclass:1 [sn:30].
 252000: system.cpu.iq: Adding instruction [sn:31] PC (0x418518=>0x41851c).(0=>1) to the IQ.
 252000: system.cpu.iq: Instruction PC (0x418518=>0x41851c).(0=>1) has src reg 62 (IntRegClass) that is being added to the dependency chain.
 252000: system.cpu.iq: Adding instruction [sn:32] PC (0x418518=>0x41851c).(1=>2) to the IQ.
 252000: system.cpu.iq: Instruction PC (0x418518=>0x41851c).(1=>2) has src reg 68 (IntRegClass) that is being added to the dependency chain.
 252000: system.cpu.iq: Adding instruction [sn:33] PC (0x418518=>0x41851c).(2=>3) to the IQ.
 252000: system.cpu.iq: Instruction PC (0x418518=>0x41851c).(2=>3) has src reg 68 (IntRegClass) that is being added to the dependency chain.
 252000: system.cpu.iq: Adding instruction [sn:34] PC (0x41851c=>0x418520).(0=>1) to the IQ.
 252000: system.cpu.iq: Instruction is ready to issue, putting it onto the ready list, PC (0x41851c=>0x418520).(0=>1) opclass:1 [sn:34].
 252000: system.cpu.iq: Adding instruction [sn:35] PC (0x418520=>0x418524).(0=>1) to the IQ.
 252000: system.cpu.iq: Instruction is ready to issue, putting it onto the ready list, PC (0x418520=>0x418524).(0=>1) opclass:1 [sn:35].
 252000: system.cpu.iq: Waking dependents of completed instruction.
 252000: system.cpu.iq: Waking any dependents on register 61 (IntRegClass).
 252000: system.cpu.iq: Waking up a dependent instruction, [sn:23] PC (0x418500=>0x418504).(3=>4).
 252000: global: [sn:23] has 1 ready out of 1 sources. RTI 0)
 252000: system.cpu.iq: Instruction is ready to issue, putting it onto the ready list, PC (0x418500=>0x418504).(3=>4) opclass:1 [sn:23].
 252000: system.cpu.iq: Waking up a dependent instruction, [sn:22] PC (0x418500=>0x418504).(2=>3).
 252000: global: [sn:22] has 2 ready out of 2 sources. RTI 0)
 252000: system.cpu.iq: Checking if memory instruction can issue.
 252000: system.cpu.iq: Instruction is ready to issue, putting it onto the ready list, PC (0x418500=>0x418504).(2=>3) opclass:48 [sn:22].
 252000: system.cpu.iq: Waking up a dependent instruction, [sn:21] PC (0x418500=>0x418504).(1=>2).
 252000: global: [sn:21] has 2 ready out of 2 sources. RTI 0)
 252000: system.cpu.iq: Checking if memory instruction can issue.
 252000: system.cpu.iq: Instruction is ready to issue, putting it onto the ready list, PC (0x418500=>0x418504).(1=>2) opclass:48 [sn:21].
 252000: system.cpu.iq: Waking dependents of completed instruction.
 252000: system.cpu.iq: Waking any dependents on register 63 (IntRegClass).
 252000: system.cpu.iq: Waking up a dependent instruction, [sn:26] PC (0x41850c=>0x418510).(0=>1).
 252000: global: [sn:26] has 1 ready out of 1 sources. RTI 0)
 252000: system.cpu.iq: Checking if memory instruction can issue.
 252000: system.cpu.iq: Instruction is ready to issue, putting it onto the ready list, PC (0x41850c=>0x418510).(0=>1) opclass:47 [sn:26].
 252000: system.cpu.iq: Attempting to schedule ready instructions from the IQ.
 252000: system.cpu.iq: Thread 0: Issuing instruction PC (0x418500=>0x418504).(1=>2) [sn:21]
 252000: system.cpu.iq: Thread 0: Issuing instruction PC (0x418500=>0x418504).(2=>3) [sn:22]
 252000: system.cpu.iq: Thread 0: Issuing instruction PC (0x418500=>0x418504).(3=>4) [sn:23]
 252000: system.cpu.iq: Thread 0: Issuing instruction PC (0x41850c=>0x418510).(0=>1) [sn:26]
 252000: system.cpu.iq: Thread 0: Issuing instruction PC (0x418514=>0x418518).(0=>1) [sn:30]
 252000: system.cpu.iq: Thread 0: Issuing instruction PC (0x41851c=>0x418520).(0=>1) [sn:34]
 252000: system.cpu.iq: Thread 0: Issuing instruction PC (0x418520=>0x418524).(0=>1) [sn:35]
 252500: system.cpu.iq: Adding instruction [sn:36] PC (0x418524=>0x418528).(0=>1) to the IQ.
 252500: system.cpu.iq: Instruction PC (0x418524=>0x418528).(0=>1) has src reg 62 (IntRegClass) that is being added to the dependency chain.
 252500: system.cpu.iq: Adding instruction [sn:37] PC (0x418524=>0x418528).(1=>2) to the IQ.
 252500: system.cpu.iq: Instruction PC (0x418524=>0x418528).(1=>2) has src reg 71 (IntRegClass) that is being added to the dependency chain.
 252500: system.cpu.iq: Adding instruction [sn:38] PC (0x418524=>0x418528).(2=>3) to the IQ.
 252500: system.cpu.iq: Instruction PC (0x418524=>0x418528).(2=>3) has src reg 71 (IntRegClass) that is being added to the dependency chain.
 252500: system.cpu.iq: Adding instruction [sn:39] PC (0x418528=>0x41852c).(0=>1) to the IQ.
 252500: system.cpu.iq: Instruction PC (0x418528=>0x41852c).(0=>1) has src reg 62 (IntRegClass) that is being added to the dependency chain.
 252500: system.cpu.iq: Adding instruction [sn:40] PC (0x418528=>0x41852c).(1=>2) to the IQ.
 252500: system.cpu.iq: Instruction PC (0x418528=>0x41852c).(1=>2) has src reg 72 (IntRegClass) that is being added to the dependency chain.
 252500: system.cpu.iq: Adding instruction [sn:41] PC (0x418528=>0x41852c).(2=>3) to the IQ.
 252500: system.cpu.iq: Instruction PC (0x418528=>0x41852c).(2=>3) has src reg 72 (IntRegClass) that is being added to the dependency chain.
 252500: system.cpu.iq: Adding instruction [sn:42] PC (0x41852c=>0x418530).(0=>1) to the IQ.
 252500: system.cpu.iq: Instruction PC (0x41852c=>0x418530).(0=>1) has src reg 62 (IntRegClass) that is being added to the dependency chain.
 252500: system.cpu.iq: Adding instruction [sn:43] PC (0x418530=>0x418534).(0=>1) to the IQ.
 252500: system.cpu.iq: Instruction PC (0x418530=>0x418534).(0=>1) has src reg 62 (IntRegClass) that is being added to the dependency chain.
 252500: system.cpu.iq: Instruction PC (0x418530=>0x418534).(0=>1) has src reg 45 (IntRegClass) that is being added to the dependency chain.
 252500: system.cpu.iq: Moved instruction [sn:43] PC (0x418530=>0x418534).(0=>1) to WIB.
 252500: system.cpu.iq: Waking dependents of completed instruction.
 252500: system.cpu.iq: Completing mem instruction PC: (0x418500=>0x418504).(1=>2) [sn:21]
 252500: system.cpu.iq: Waking dependents of completed instruction.
 252500: system.cpu.iq: Completing mem instruction PC: (0x418500=>0x418504).(2=>3) [sn:22]
 252500: system.cpu.iq: Waking dependents of completed instruction.
 252500: system.cpu.iq: Waking any dependents on register 62 (IntRegClass).
 252500: system.cpu.iq: Waking up a dependent instruction, [sn:43] PC (0x418530=>0x418534).(0=>1).
 252500: global: [sn:43] has 1 ready out of 2 sources. RTI 0)
 252500: system.cpu.iq: Waking up a dependent instruction, [sn:42] PC (0x41852c=>0x418530).(0=>1).
 252500: global: [sn:42] has 2 ready out of 2 sources. RTI 0)
 252500: system.cpu.iq: Checking if memory instruction can issue.
 252500: system.cpu.iq: Instruction is ready to issue, putting it onto the ready list, PC (0x41852c=>0x418530).(0=>1) opclass:48 [sn:42].
 252500: system.cpu.iq: Waking up a dependent instruction, [sn:39] PC (0x418528=>0x41852c).(0=>1).
 252500: global: [sn:39] has 1 ready out of 1 sources. RTI 0)
 252500: system.cpu.iq: Instruction is ready to issue, putting it onto the ready list, PC (0x418528=>0x41852c).(0=>1) opclass:1 [sn:39].
 252500: system.cpu.iq: Waking up a dependent instruction, [sn:36] PC (0x418524=>0x418528).(0=>1).
 252500: global: [sn:36] has 1 ready out of 1 sources. RTI 0)
 252500: system.cpu.iq: Instruction is ready to issue, putting it onto the ready list, PC (0x418524=>0x418528).(0=>1) opclass:1 [sn:36].
 252500: system.cpu.iq: Waking up a dependent instruction, [sn:31] PC (0x418518=>0x41851c).(0=>1).
 252500: global: [sn:31] has 1 ready out of 1 sources. RTI 0)
 252500: system.cpu.iq: Instruction is ready to issue, putting it onto the ready list, PC (0x418518=>0x41851c).(0=>1) opclass:1 [sn:31].
 252500: system.cpu.iq: Waking up a dependent instruction, [sn:27] PC (0x418510=>0x418514).(0=>1).
 252500: global: [sn:27] has 1 ready out of 1 sources. RTI 0)
 252500: system.cpu.iq: Instruction is ready to issue, putting it onto the ready list, PC (0x418510=>0x418514).(0=>1) opclass:1 [sn:27].
 252500: system.cpu.iq: Waking up a dependent instruction, [sn:25] PC (0x418508=>0x41850c).(0=>1).
 252500: global: [sn:25] has 1 ready out of 1 sources. RTI 0)
 252500: system.cpu.iq: Instruction is ready to issue, putting it onto the ready list, PC (0x418508=>0x41850c).(0=>1) opclass:1 [sn:25].
 252500: system.cpu.iq: Waking dependents of completed instruction.
 252500: system.cpu.iq: Waking any dependents on register 67 (IntRegClass).
 252500: system.cpu.iq: Waking dependents of completed instruction.
 252500: system.cpu.iq: Waking any dependents on register 69 (IntRegClass).
 252500: system.cpu.iq: Waking dependents of completed instruction.
 252500: system.cpu.iq: Waking any dependents on register 70 (IntRegClass).
 252500: system.cpu.iq: Attempting to schedule ready instructions from the IQ.
 252500: system.cpu.iq: Thread 0: Issuing instruction PC (0x418508=>0x41850c).(0=>1) [sn:25]
 252500: system.cpu.iq: Thread 0: Issuing instruction PC (0x418510=>0x418514).(0=>1) [sn:27]
 252500: system.cpu.iq: Thread 0: Issuing instruction PC (0x418518=>0x41851c).(0=>1) [sn:31]
 252500: system.cpu.iq: Thread 0: Issuing instruction PC (0x418524=>0x418528).(0=>1) [sn:36]
 252500: system.cpu.iq: Thread 0: Issuing instruction PC (0x418528=>0x41852c).(0=>1) [sn:39]
 252500: system.cpu.iq: Thread 0: Issuing instruction PC (0x41852c=>0x418530).(0=>1) [sn:42]
 253000: system.cpu.iq: Adding instruction [sn:44] PC (0x418534=>0x418538).(0=>1) to the IQ.
 253000: system.cpu.iq: Instruction is ready to issue, putting it onto the ready list, PC (0x418534=>0x418538).(0=>1) opclass:1 [sn:44].
 253000: system.cpu.iq: Adding instruction [sn:45] PC (0x418538=>0x41853c).(0=>1) to the IQ.
 253000: system.cpu.iq: Instruction PC (0x418538=>0x41853c).(0=>1) has src reg 62 (IntRegClass) that became ready before it reached the IQ.
 253000: global: [sn:45] has 1 ready out of 1 sources. RTI 0)
 253000: system.cpu.iq: Instruction is ready to issue, putting it onto the ready list, PC (0x418538=>0x41853c).(0=>1) opclass:1 [sn:45].
 253000: system.cpu.iq: Adding instruction [sn:46] PC (0x418538=>0x41853c).(1=>2) to the IQ.
 253000: system.cpu.iq: Instruction PC (0x418538=>0x41853c).(1=>2) has src reg 74 (IntRegClass) that is being added to the dependency chain.
 253000: system.cpu.iq: Adding instruction [sn:47] PC (0x418538=>0x41853c).(2=>3) to the IQ.
 253000: system.cpu.iq: Instruction PC (0x418538=>0x41853c).(2=>3) has src reg 74 (IntRegClass) that is being added to the dependency chain.
 253000: system.cpu.iq: Adding instruction [sn:48] PC (0x41853c=>0x418540).(0=>1) to the IQ.
 253000: system.cpu.iq: Instruction PC (0x41853c=>0x418540).(0=>1) has src reg 65 (IntRegClass) that is being added to the dependency chain.
 253000: system.cpu.iq: Moved instruction [sn:48] PC (0x41853c=>0x418540).(0=>1) to WIB.
 253000: system.cpu.iq: Waking dependents of completed instruction.
 253000: system.cpu.iq: Waking any dependents on register 64 (IntRegClass).
 253000: system.cpu.iq: Waking dependents of completed instruction.
 253000: system.cpu.iq: Waking any dependents on register 66 (IntRegClass).
 253000: system.cpu.iq: Waking up a dependent instruction, [sn:29] PC (0x418510=>0x418514).(2=>3).
 253000: global: [sn:29] has 2 ready out of 2 sources. RTI 0)
 253000: system.cpu.iq: Checking if memory instruction can issue.
 253000: system.cpu.iq: Instruction is ready to issue, putting it onto the ready list, PC (0x418510=>0x418514).(2=>3) opclass:48 [sn:29].
 253000: system.cpu.iq: Waking up a dependent instruction, [sn:28] PC (0x418510=>0x418514).(1=>2).
 253000: global: [sn:28] has 2 ready out of 2 sources. RTI 0)
 253000: system.cpu.iq: Checking if memory instruction can issue.
 253000: system.cpu.iq: Instruction is ready to issue, putting it onto the ready list, PC (0x418510=>0x418514).(1=>2) opclass:48 [sn:28].
 253000: system.cpu.iq: Waking dependents of completed instruction.
 253000: system.cpu.iq: Waking any dependents on register 68 (IntRegClass).
 253000: system.cpu.iq: Waking up a dependent instruction, [sn:33] PC (0x418518=>0x41851c).(2=>3).
 253000: global: [sn:33] has 2 ready out of 2 sources. RTI 0)
 253000: system.cpu.iq: Checking if memory instruction can issue.
 253000: system.cpu.iq: Instruction is ready to issue, putting it onto the ready list, PC (0x418518=>0x41851c).(2=>3) opclass:48 [sn:33].
 253000: system.cpu.iq: Waking up a dependent instruction, [sn:32] PC (0x418518=>0x41851c).(1=>2).
 253000: global: [sn:32] has 2 ready out of 2 sources. RTI 0)
 253000: system.cpu.iq: Checking if memory instruction can issue.
 253000: system.cpu.iq: Instruction is ready to issue, putting it onto the ready list, PC (0x418518=>0x41851c).(1=>2) opclass:48 [sn:32].
 253000: system.cpu.iq: Waking dependents of completed instruction.
 253000: system.cpu.iq: Waking any dependents on register 71 (IntRegClass).
 253000: system.cpu.iq: Waking up a dependent instruction, [sn:38] PC (0x418524=>0x418528).(2=>3).
 253000: global: [sn:38] has 2 ready out of 2 sources. RTI 0)
 253000: system.cpu.iq: Checking if memory instruction can issue.
 253000: system.cpu.iq: Instruction is ready to issue, putting it onto the ready list, PC (0x418524=>0x418528).(2=>3) opclass:48 [sn:38].
 253000: system.cpu.iq: Waking up a dependent instruction, [sn:37] PC (0x418524=>0x418528).(1=>2).
 253000: global: [sn:37] has 2 ready out of 2 sources. RTI 0)
 253000: system.cpu.iq: Checking if memory instruction can issue.
 253000: system.cpu.iq: Instruction is ready to issue, putting it onto the ready list, PC (0x418524=>0x418528).(1=>2) opclass:48 [sn:37].
 253000: system.cpu.iq: Waking dependents of completed instruction.
 253000: system.cpu.iq: Waking any dependents on register 72 (IntRegClass).
 253000: system.cpu.iq: Waking up a dependent instruction, [sn:41] PC (0x418528=>0x41852c).(2=>3).
 253000: global: [sn:41] has 2 ready out of 2 sources. RTI 0)
 253000: system.cpu.iq: Checking if memory instruction can issue.
 253000: system.cpu.iq: Instruction is ready to issue, putting it onto the ready list, PC (0x418528=>0x41852c).(2=>3) opclass:48 [sn:41].
 253000: system.cpu.iq: Waking up a dependent instruction, [sn:40] PC (0x418528=>0x41852c).(1=>2).
 253000: global: [sn:40] has 2 ready out of 2 sources. RTI 0)
 253000: system.cpu.iq: Checking if memory instruction can issue.
 253000: system.cpu.iq: Instruction is ready to issue, putting it onto the ready list, PC (0x418528=>0x41852c).(1=>2) opclass:48 [sn:40].
 253000: system.cpu.iq: Waking dependents of completed instruction.
 253000: system.cpu.iq: Completing mem instruction PC: (0x41852c=>0x418530).(0=>1) [sn:42]
 253000: system.cpu.iq: Attempting to schedule ready instructions from the IQ.
 253000: system.cpu.iq: Thread 0: Issuing instruction PC (0x418510=>0x418514).(1=>2) [sn:28]
 253000: system.cpu.iq: Thread 0: Issuing instruction PC (0x418510=>0x418514).(2=>3) [sn:29]
 253000: system.cpu.iq: Thread 0: Issuing instruction PC (0x418518=>0x41851c).(1=>2) [sn:32]
 253000: system.cpu.iq: Thread 0: Issuing instruction PC (0x418518=>0x41851c).(2=>3) [sn:33]
 253000: system.cpu.iq: Thread 0: Issuing instruction PC (0x418534=>0x418538).(0=>1) [sn:44]
 253000: system.cpu.iq: Thread 0: Issuing instruction PC (0x418538=>0x41853c).(0=>1) [sn:45]
 253500: system.cpu.iq: Waking dependents of completed instruction.
 253500: system.cpu.iq: Completing mem instruction PC: (0x418510=>0x418514).(1=>2) [sn:28]
 253500: system.cpu.iq: Waking dependents of completed instruction.
 253500: system.cpu.iq: Completing mem instruction PC: (0x418510=>0x418514).(2=>3) [sn:29]
 253500: system.cpu.iq: Waking dependents of completed instruction.
 253500: system.cpu.iq: Completing mem instruction PC: (0x418518=>0x41851c).(1=>2) [sn:32]
 253500: system.cpu.iq: Waking dependents of completed instruction.
 253500: system.cpu.iq: Completing mem instruction PC: (0x418518=>0x41851c).(2=>3) [sn:33]
 253500: system.cpu.iq: Waking dependents of completed instruction.
 253500: system.cpu.iq: Waking any dependents on register 73 (IntRegClass).
 253500: system.cpu.iq: Waking dependents of completed instruction.
 253500: system.cpu.iq: Waking any dependents on register 74 (IntRegClass).
 253500: system.cpu.iq: Waking up a dependent instruction, [sn:47] PC (0x418538=>0x41853c).(2=>3).
 253500: global: [sn:47] has 2 ready out of 2 sources. RTI 0)
 253500: system.cpu.iq: Checking if memory instruction can issue.
 253500: system.cpu.iq: Instruction is ready to issue, putting it onto the ready list, PC (0x418538=>0x41853c).(2=>3) opclass:48 [sn:47].
 253500: system.cpu.iq: Waking up a dependent instruction, [sn:46] PC (0x418538=>0x41853c).(1=>2).
 253500: global: [sn:46] has 2 ready out of 2 sources. RTI 0)
 253500: system.cpu.iq: Checking if memory instruction can issue.
 253500: system.cpu.iq: Instruction is ready to issue, putting it onto the ready list, PC (0x418538=>0x41853c).(1=>2) opclass:48 [sn:46].
 253500: system.cpu.iq: Attempting to schedule ready instructions from the IQ.
 253500: system.cpu.iq: Thread 0: Issuing instruction PC (0x418524=>0x418528).(1=>2) [sn:37]
 253500: system.cpu.iq: Thread 0: Issuing instruction PC (0x418524=>0x418528).(2=>3) [sn:38]
 253500: system.cpu.iq: Thread 0: Issuing instruction PC (0x418528=>0x41852c).(1=>2) [sn:40]
 253500: system.cpu.iq: Thread 0: Issuing instruction PC (0x418528=>0x41852c).(2=>3) [sn:41]
 254000: system.cpu.iq: Waking dependents of completed instruction.
 254000: system.cpu.iq: Completing mem instruction PC: (0x418524=>0x418528).(1=>2) [sn:37]
 254000: system.cpu.iq: Waking dependents of completed instruction.
 254000: system.cpu.iq: Completing mem instruction PC: (0x418524=>0x418528).(2=>3) [sn:38]
 254000: system.cpu.iq: Waking dependents of completed instruction.
 254000: system.cpu.iq: Completing mem instruction PC: (0x418528=>0x41852c).(1=>2) [sn:40]
 254000: system.cpu.iq: Waking dependents of completed instruction.
 254000: system.cpu.iq: Completing mem instruction PC: (0x418528=>0x41852c).(2=>3) [sn:41]
 254000: system.cpu.iq: Attempting to schedule ready instructions from the IQ.
 254000: system.cpu.iq: Thread 0: Issuing instruction PC (0x418538=>0x41853c).(1=>2) [sn:46]
 254000: system.cpu.iq: Thread 0: Issuing instruction PC (0x418538=>0x41853c).(2=>3) [sn:47]
 254500: system.cpu.iq: Waking dependents of completed instruction.
 254500: system.cpu.iq: Completing mem instruction PC: (0x418538=>0x41853c).(1=>2) [sn:46]
 254500: system.cpu.iq: Waking dependents of completed instruction.
 254500: system.cpu.iq: Completing mem instruction PC: (0x418538=>0x41853c).(2=>3) [sn:47]
 254500: system.cpu.iq: Attempting to schedule ready instructions from the IQ.
 254500: system.cpu.iq: Not able to schedule any instructions.
 255000: system.cpu.iq: Attempting to schedule ready instructions from the IQ.
 255000: system.cpu.iq: Not able to schedule any instructions.
 255500: system.cpu.iq: Attempting to schedule ready instructions from the IQ.
 255500: system.cpu.iq: Not able to schedule any instructions.
 256000: system.cpu.iq: Attempting to schedule ready instructions from the IQ.
 256000: system.cpu.iq: Not able to schedule any instructions.
 256500: system.cpu.iq: Attempting to schedule ready instructions from the IQ.
 256500: system.cpu.iq: Not able to schedule any instructions.
 257000: system.cpu.iq: Attempting to schedule ready instructions from the IQ.
 257000: system.cpu.iq: Not able to schedule any instructions.
 257500: system.cpu.iq: Attempting to schedule ready instructions from the IQ.
 257500: system.cpu.iq: Not able to schedule any instructions.
 258000: system.cpu.iq: Attempting to schedule ready instructions from the IQ.
 258000: system.cpu.iq: Not able to schedule any instructions.
 258500: system.cpu.iq: Attempting to schedule ready instructions from the IQ.
 258500: system.cpu.iq: Not able to schedule any instructions.
 259000: system.cpu.iq: Attempting to schedule ready instructions from the IQ.
 259000: system.cpu.iq: Not able to schedule any instructions.
 259500: system.cpu.iq: Attempting to schedule ready instructions from the IQ.
 259500: system.cpu.iq: Not able to schedule any instructions.
 269500: system.cpu.iq: Waking dependents of completed instruction.
 269500: system.cpu.iq: Completing mem instruction PC: (0x401f00=>0x401f04).(0=>1) [sn:4]
 269500: system.cpu.iq: Waking any dependents on register 45 (IntRegClass).
 269500: system.cpu.iq: Waking up a dependent instruction, [sn:43] PC (0x418530=>0x418534).(0=>1).
 269500: global: [sn:43] has 2 ready out of 2 sources. RTI 0)
 269500: system.cpu.iq: Checking if memory instruction can issue.
 269500: system.cpu.iq: Instruction is ready to issue, putting it onto the ready list, PC (0x418530=>0x418534).(0=>1) opclass:48 [sn:43].
 269500: system.cpu.iq: Removed instruction [sn:43] PC (0x418530=>0x418534).(0=>1) from WIB.
 269500: system.cpu.iq: Attempting to schedule ready instructions from the IQ.
 269500: system.cpu.iq: Thread 0: Issuing instruction PC (0x418530=>0x418534).(0=>1) [sn:43]
 270000: system.cpu.iq: Waking dependents of completed instruction.
 270000: system.cpu.iq: Completing mem instruction PC: (0x418530=>0x418534).(0=>1) [sn:43]
 270000: system.cpu.iq: Attempting to schedule ready instructions from the IQ.
 270000: system.cpu.iq: Not able to schedule any instructions.
 270500: system.cpu.iq: Attempting to schedule ready instructions from the IQ.
 270500: system.cpu.iq: Not able to schedule any instructions.
 271000: system.cpu.iq: Attempting to schedule ready instructions from the IQ.
 271000: system.cpu.iq: Not able to schedule any instructions.
 271000: system.cpu.iq: [tid:0] Committing instructions older than [sn:11]
 271500: system.cpu.iq: Attempting to schedule ready instructions from the IQ.
 271500: system.cpu.iq: Not able to schedule any instructions.
 271500: system.cpu.iq: [tid:0] Committing instructions older than [sn:19]
 272000: system.cpu.iq: Attempting to schedule ready instructions from the IQ.
 272000: system.cpu.iq: Not able to schedule any instructions.
 272000: system.cpu.iq: [tid:0] Committing instructions older than [sn:25]
 272500: system.cpu.iq: Attempting to schedule ready instructions from the IQ.
 272500: system.cpu.iq: Not able to schedule any instructions.
 273000: system.cpu.iq: Attempting to schedule ready instructions from the IQ.
 273000: system.cpu.iq: Not able to schedule any instructions.
 273500: system.cpu.iq: Attempting to schedule ready instructions from the IQ.
 273500: system.cpu.iq: Not able to schedule any instructions.
 274000: system.cpu.iq: Attempting to schedule ready instructions from the IQ.
 274000: system.cpu.iq: Not able to schedule any instructions.
 274500: system.cpu.iq: Attempting to schedule ready instructions from the IQ.
 274500: system.cpu.iq: Not able to schedule any instructions.
 275000: system.cpu.iq: Attempting to schedule ready instructions from the IQ.
 275000: system.cpu.iq: Not able to schedule any instructions.
 275500: system.cpu.iq: Attempting to schedule ready instructions from the IQ.
 275500: system.cpu.iq: Not able to schedule any instructions.
 276000: system.cpu.iq: Attempting to schedule ready instructions from the IQ.
 276000: system.cpu.iq: Not able to schedule any instructions.
 276500: system.cpu.iq: Attempting to schedule ready instructions from the IQ.
 276500: system.cpu.iq: Not able to schedule any instructions.
 277000: system.cpu.iq: Attempting to schedule ready instructions from the IQ.
 277000: system.cpu.iq: Not able to schedule any instructions.
 277500: system.cpu.iq: Attempting to schedule ready instructions from the IQ.
 277500: system.cpu.iq: Not able to schedule any instructions.
 323500: system.cpu.iq: Attempting to schedule ready instructions from the IQ.
 323500: system.cpu.iq: Not able to schedule any instructions.
 324000: system.cpu.iq: Attempting to schedule ready instructions from the IQ.
 324000: system.cpu.iq: Not able to schedule any instructions.
 324500: global: [sn:51] has 1 ready out of 5 sources. RTI 0)
 324500: global: [sn:51] has 2 ready out of 5 sources. RTI 0)
 324500: global: [sn:52] has 1 ready out of 1 sources. RTI 0)
 324500: global: [sn:54] has 1 ready out of 1 sources. RTI 0)
 324500: system.cpu.iq: Attempting to schedule ready instructions from the IQ.
 324500: system.cpu.iq: Not able to schedule any instructions.
 325000: global: [sn:59] has 1 ready out of 2 sources. RTI 0)
 325000: system.cpu.iq: Attempting to schedule ready instructions from the IQ.
 325000: system.cpu.iq: Not able to schedule any instructions.
 325500: system.cpu.iq: Adding instruction [sn:49] PC (0x418540=>0x418544).(0=>1) to the IQ.
 325500: system.cpu.iq: Instruction PC (0x418540=>0x418544).(0=>1) has src reg 65 (IntRegClass) that is being added to the dependency chain.
 325500: system.cpu.iq: Moved instruction [sn:49] PC (0x418540=>0x418544).(0=>1) to WIB.
 325500: system.cpu.iq: Adding instruction [sn:50] PC (0x418544=>0x418548).(0=>1) to the IQ.
 325500: system.cpu.iq: Instruction PC (0x418544=>0x418548).(0=>1) has src reg 75 (IntRegClass) that is being added to the dependency chain.
 325500: system.cpu.iq: Adding instruction [sn:51] PC (0x418548=>0x41854c).(0=>1) to the IQ.
 325500: system.cpu.iq: Instruction PC (0x418548=>0x41854c).(0=>1) has src reg 6 (CCRegClass) that is being added to the dependency chain.
 325500: system.cpu.iq: Instruction PC (0x418548=>0x41854c).(0=>1) has src reg 8 (CCRegClass) that is being added to the dependency chain.
 325500: system.cpu.iq: Instruction PC (0x418548=>0x41854c).(0=>1) has src reg 7 (CCRegClass) that is being added to the dependency chain.
 325500: system.cpu.iq: Adding instruction [sn:52] PC (0x41854c=>0x418550).(0=>1) to the IQ.
 325500: system.cpu.iq: Instruction is ready to issue, putting it onto the ready list, PC (0x41854c=>0x418550).(0=>1) opclass:47 [sn:52].
 325500: system.cpu.iq: Adding instruction [sn:53] PC (0x418550=>0x418554).(0=>1) to the IQ.
 325500: system.cpu.iq: Instruction is ready to issue, putting it onto the ready list, PC (0x418550=>0x418554).(0=>1) opclass:1 [sn:53].
 325500: system.cpu.iq: Adding instruction [sn:54] PC (0x418554=>0x418558).(0=>1) to the IQ.
 325500: system.cpu.iq: Instruction is ready to issue, putting it onto the ready list, PC (0x418554=>0x418558).(0=>1) opclass:47 [sn:54].
 325500: system.cpu.iq: Adding instruction [sn:55] PC (0x418558=>0x41855c).(0=>1) to the IQ.
 325500: system.cpu.iq: Instruction is ready to issue, putting it onto the ready list, PC (0x418558=>0x41855c).(0=>1) opclass:1 [sn:55].
 325500: system.cpu.iq: Adding instruction [sn:56] PC (0x41855c=>0x418560).(0=>1) to the IQ.
 325500: system.cpu.iq: Instruction is ready to issue, putting it onto the ready list, PC (0x41855c=>0x418560).(0=>1) opclass:1 [sn:56].
 325500: system.cpu.iq: Attempting to schedule ready instructions from the IQ.
 325500: system.cpu.iq: Thread 0: Issuing instruction PC (0x41854c=>0x418550).(0=>1) [sn:52]
 325500: system.cpu.iq: Thread 0: Issuing instruction PC (0x418550=>0x418554).(0=>1) [sn:53]
 325500: system.cpu.iq: Thread 0: Issuing instruction PC (0x418554=>0x418558).(0=>1) [sn:54]
 325500: system.cpu.iq: Thread 0: Issuing instruction PC (0x418558=>0x41855c).(0=>1) [sn:55]
 325500: system.cpu.iq: Thread 0: Issuing instruction PC (0x41855c=>0x418560).(0=>1) [sn:56]
 326000: system.cpu.iq: Adding instruction [sn:57] PC (0x418560=>0x418564).(0=>1) to the IQ.
 326000: system.cpu.iq: Instruction PC (0x418560=>0x418564).(0=>1) has src reg 80 (IntRegClass) that is being added to the dependency chain.
 326000: system.cpu.iq: Instruction PC (0x418560=>0x418564).(0=>1) has src reg 76 (IntRegClass) that is being added to the dependency chain.
 326000: system.cpu.iq: Adding instruction [sn:58] PC (0x418564=>0x418568).(0=>1) to the IQ.
 326000: system.cpu.iq: Instruction PC (0x418564=>0x418568).(0=>1) has src reg 79 (IntRegClass) that is being added to the dependency chain.
 326000: system.cpu.iq: Instruction PC (0x418564=>0x418568).(0=>1) has src reg 77 (IntRegClass) that is being added to the dependency chain.
 326000: system.cpu.iq: Adding instruction [sn:59] PC (0x418568=>0x41856c).(0=>1) to the IQ.
 326000: system.cpu.iq: Instruction PC (0x418568=>0x41856c).(0=>1) has src reg 81 (IntRegClass) that is being added to the dependency chain.
 326000: system.cpu.iq: Adding instruction [sn:60] PC (0x41856c=>0x418570).(0=>1) to the IQ.
 326000: system.cpu.iq: Instruction PC (0x41856c=>0x418570).(0=>1) has src reg 82 (IntRegClass) that is being added to the dependency chain.
 326000: system.cpu.iq: Adding instruction [sn:61] PC (0x418570=>0x418574).(0=>1) to the IQ.
 326000: system.cpu.iq: Instruction PC (0x418570=>0x418574).(0=>1) has src reg 78 (IntRegClass) that is being added to the dependency chain.
 326000: system.cpu.iq: Instruction PC (0x418570=>0x418574).(0=>1) has src reg 83 (IntRegClass) that is being added to the dependency chain.
 326000: system.cpu.iq: Adding instruction [sn:63] PC (0x418578=>0x41857c).(0=>1) to the IQ.
 326000: system.cpu.iq: Instruction PC (0x418578=>0x41857c).(0=>1) has src reg 83 (IntRegClass) that is being added to the dependency chain.
 326000: system.cpu.iq: Adding instruction [sn:64] PC (0x418578=>0x41857c).(1=>2) to the IQ.
 326000: system.cpu.iq: Instruction PC (0x418578=>0x41857c).(1=>2) has src reg 83 (IntRegClass) that is being added to the dependency chain.
 326000: system.cpu.iq: Waking dependents of completed instruction.
 326000: system.cpu.iq: Waking any dependents on register 78 (IntRegClass).
 326000: system.cpu.iq: Waking up a dependent instruction, [sn:61] PC (0x418570=>0x418574).(0=>1).
 326000: global: [sn:61] has 1 ready out of 2 sources. RTI 0)
 326000: system.cpu.iq: Waking dependents of completed instruction.
 326000: system.cpu.iq: Waking any dependents on register 80 (IntRegClass).
 326000: system.cpu.iq: Waking up a dependent instruction, [sn:57] PC (0x418560=>0x418564).(0=>1).
 326000: global: [sn:57] has 1 ready out of 2 sources. RTI 0)
 326000: system.cpu.iq: Waking dependents of completed instruction.
 326000: system.cpu.iq: Waking any dependents on register 81 (IntRegClass).
 326000: system.cpu.iq: Waking up a dependent instruction, [sn:59] PC (0x418568=>0x41856c).(0=>1).
 326000: global: [sn:59] has 2 ready out of 2 sources. RTI 0)
 326000: system.cpu.iq: Checking if memory instruction can issue.
 326000: system.cpu.iq: Instruction is ready to issue, putting it onto the ready list, PC (0x418568=>0x41856c).(0=>1) opclass:48 [sn:59].
 326000: system.cpu.iq: Attempting to schedule ready instructions from the IQ.
 326000: system.cpu.iq: Thread 0: Issuing instruction PC (0x418568=>0x41856c).(0=>1) [sn:59]
 326500: system.cpu.iq: Adding instruction [sn:65] PC (0x41857c=>0x418580).(0=>1) to the IQ.
 326500: system.cpu.iq: Instruction PC (0x41857c=>0x418580).(0=>1) has src reg 84 (IntRegClass) that is being added to the dependency chain.
 326500: system.cpu.iq: Waking dependents of completed instruction.
 326500: system.cpu.iq: Completing mem instruction PC: (0x418554=>0x418558).(0=>1) [sn:54]
 326500: system.cpu.iq: Waking any dependents on register 79 (IntRegClass).
 326500: system.cpu.iq: Waking up a dependent instruction, [sn:58] PC (0x418564=>0x418568).(0=>1).
 326500: global: [sn:58] has 1 ready out of 2 sources. RTI 0)
 326500: system.cpu.iq: Waking dependents of completed instruction.
 326500: system.cpu.iq: Completing mem instruction PC: (0x41854c=>0x418550).(0=>1) [sn:52]
 326500: system.cpu.iq: Waking any dependents on register 77 (IntRegClass).
 326500: system.cpu.iq: Waking up a dependent instruction, [sn:58] PC (0x418564=>0x418568).(0=>1).
 326500: global: [sn:58] has 2 ready out of 2 sources. RTI 0)
 326500: system.cpu.iq: Instruction is ready to issue, putting it onto the ready list, PC (0x418564=>0x418568).(0=>1) opclass:1 [sn:58].
 326500: system.cpu.iq: Waking dependents of completed instruction.
 326500: system.cpu.iq: Completing mem instruction PC: (0x418568=>0x41856c).(0=>1) [sn:59]
 326500: system.cpu.iq: Attempting to schedule ready instructions from the IQ.
 326500: system.cpu.iq: Thread 0: Issuing instruction PC (0x418564=>0x418568).(0=>1) [sn:58]
 327000: system.cpu.iq: Waking dependents of completed instruction.
 327000: system.cpu.iq: Waking any dependents on register 82 (IntRegClass).
 327000: system.cpu.iq: Waking up a dependent instruction, [sn:60] PC (0x41856c=>0x418570).(0=>1).
 327000: global: [sn:60] has 1 ready out of 1 sources. RTI 0)
 327000: system.cpu.iq: Instruction is ready to issue, putting it onto the ready list, PC (0x41856c=>0x418570).(0=>1) opclass:1 [sn:60].
 327000: system.cpu.iq: Attempting to schedule ready instructions from the IQ.
 327000: system.cpu.iq: Thread 0: Issuing instruction PC (0x41856c=>0x418570).(0=>1) [sn:60]
 327500: system.cpu.iq: Waking dependents of completed instruction.
 327500: system.cpu.iq: Waking any dependents on register 83 (IntRegClass).
 327500: system.cpu.iq: Waking up a dependent instruction, [sn:64] PC (0x418578=>0x41857c).(1=>2).
 327500: global: [sn:64] has 1 ready out of 1 sources. RTI 0)
 327500: system.cpu.iq: Instruction is ready to issue, putting it onto the ready list, PC (0x418578=>0x41857c).(1=>2) opclass:1 [sn:64].
 327500: system.cpu.iq: Waking up a dependent instruction, [sn:63] PC (0x418578=>0x41857c).(0=>1).
 327500: global: [sn:63] has 1 ready out of 1 sources. RTI 0)
 327500: system.cpu.iq: Checking if memory instruction can issue.
 327500: system.cpu.iq: Instruction is ready to issue, putting it onto the ready list, PC (0x418578=>0x41857c).(0=>1) opclass:47 [sn:63].
 327500: system.cpu.iq: Waking up a dependent instruction, [sn:61] PC (0x418570=>0x418574).(0=>1).
 327500: global: [sn:61] has 2 ready out of 2 sources. RTI 0)
 327500: system.cpu.iq: Checking if memory instruction can issue.
 327500: system.cpu.iq: Instruction is ready to issue, putting it onto the ready list, PC (0x418570=>0x418574).(0=>1) opclass:48 [sn:61].
 327500: system.cpu.iq: Attempting to schedule ready instructions from the IQ.
 327500: system.cpu.iq: Thread 0: Issuing instruction PC (0x418570=>0x418574).(0=>1) [sn:61]
 327500: system.cpu.iq: Thread 0: Issuing instruction PC (0x418578=>0x41857c).(0=>1) [sn:63]
 327500: system.cpu.iq: Thread 0: Issuing instruction PC (0x418578=>0x41857c).(1=>2) [sn:64]
 328000: system.cpu.iq: Waking dependents of completed instruction.
 328000: system.cpu.iq: Completing mem instruction PC: (0x418570=>0x418574).(0=>1) [sn:61]
 328000: system.cpu.iq: Waking dependents of completed instruction.
 328000: system.cpu.iq: Waking any dependents on register 85 (IntRegClass).
 328000: system.cpu.iq: Attempting to schedule ready instructions from the IQ.
 328000: system.cpu.iq: Not able to schedule any instructions.
 328500: system.cpu.iq: Attempting to schedule ready instructions from the IQ.
 328500: system.cpu.iq: Not able to schedule any instructions.
 329000: system.cpu.iq: Attempting to schedule ready instructions from the IQ.
 329000: system.cpu.iq: Not able to schedule any instructions.
 329500: system.cpu.iq: Attempting to schedule ready instructions from the IQ.
 329500: system.cpu.iq: Not able to schedule any instructions.
 330000: system.cpu.iq: Attempting to schedule ready instructions from the IQ.
 330000: system.cpu.iq: Not able to schedule any instructions.
 330500: system.cpu.iq: Attempting to schedule ready instructions from the IQ.
 330500: system.cpu.iq: Not able to schedule any instructions.
 331000: system.cpu.iq: Attempting to schedule ready instructions from the IQ.
 331000: system.cpu.iq: Not able to schedule any instructions.
 331500: system.cpu.iq: Attempting to schedule ready instructions from the IQ.
 331500: system.cpu.iq: Not able to schedule any instructions.
 332000: system.cpu.iq: Attempting to schedule ready instructions from the IQ.
 332000: system.cpu.iq: Not able to schedule any instructions.
 332500: system.cpu.iq: Attempting to schedule ready instructions from the IQ.
 332500: system.cpu.iq: Not able to schedule any instructions.
 333000: system.cpu.iq: Attempting to schedule ready instructions from the IQ.
 333000: system.cpu.iq: Not able to schedule any instructions.
 338500: system.cpu.iq: Waking dependents of completed instruction.
 338500: system.cpu.iq: Completing mem instruction PC: (0x41850c=>0x418510).(0=>1) [sn:26]
 338500: system.cpu.iq: Waking any dependents on register 65 (IntRegClass).
 338500: system.cpu.iq: Waking up a dependent instruction, [sn:49] PC (0x418540=>0x418544).(0=>1).
 338500: global: [sn:49] has 1 ready out of 1 sources. RTI 0)
 338500: system.cpu.iq: Checking if memory instruction can issue.
 338500: system.cpu.iq: Instruction is ready to issue, putting it onto the ready list, PC (0x418540=>0x418544).(0=>1) opclass:47 [sn:49].
 338500: system.cpu.iq: Removed instruction [sn:49] PC (0x418540=>0x418544).(0=>1) from WIB.
 338500: system.cpu.iq: Waking up a dependent instruction, [sn:48] PC (0x41853c=>0x418540).(0=>1).
 338500: global: [sn:48] has 1 ready out of 1 sources. RTI 0)
 338500: system.cpu.iq: Instruction is ready to issue, putting it onto the ready list, PC (0x41853c=>0x418540).(0=>1) opclass:1 [sn:48].
 338500: system.cpu.iq: Removed instruction [sn:48] PC (0x41853c=>0x418540).(0=>1) from WIB.
 338500: system.cpu.iq: Attempting to schedule ready instructions from the IQ.
 338500: system.cpu.iq: Thread 0: Issuing instruction PC (0x41853c=>0x418540).(0=>1) [sn:48]
 338500: system.cpu.iq: Thread 0: Issuing instruction PC (0x418540=>0x418544).(0=>1) [sn:49]
 339000: system.cpu.iq: Waking dependents of completed instruction.
 339000: system.cpu.iq: Attempting to schedule ready instructions from the IQ.
 339000: system.cpu.iq: Not able to schedule any instructions.
 339500: system.cpu.iq: Attempting to schedule ready instructions from the IQ.
 339500: system.cpu.iq: Not able to schedule any instructions.
 340000: system.cpu.iq: [tid:0] Starting to squash instructions in the IQ.
 340000: system.cpu.iq: [tid:0] Squashing until sequence number 48!
 340000: system.cpu.iq: [tid:0] Instruction [sn:65] PC (0x41857c=>0x418580).(0=>1) squashed.
 340000: system.cpu.iq: [tid:0] Instruction [sn:63] PC (0x418578=>0x41857c).(0=>1) squashed.
 340000: system.cpu.iq: [tid:0] Instruction [sn:57] PC (0x418560=>0x418564).(0=>1) squashed.
 340000: system.cpu.iq: [tid:0] Instruction [sn:51] PC (0x418548=>0x41854c).(0=>1) squashed.
 340000: system.cpu.iq: [tid:0] Instruction [sn:50] PC (0x418544=>0x418548).(0=>1) squashed.
 340000: system.cpu.iq: [tid:0] Squashing until sequence number 48!
 340000: system.cpu.iq: Attempting to schedule ready instructions from the IQ.
 340000: system.cpu.iq: Not able to schedule any instructions.
 340500: system.cpu.iq: Attempting to schedule ready instructions from the IQ.
 340500: system.cpu.iq: Not able to schedule any instructions.
 341000: system.cpu.iq: Attempting to schedule ready instructions from the IQ.
 341000: system.cpu.iq: Not able to schedule any instructions.
 341500: system.cpu.iq: Attempting to schedule ready instructions from the IQ.
 341500: system.cpu.iq: Not able to schedule any instructions.
 341500: system.cpu.iq: [tid:0] Committing instructions older than [sn:33]
 342000: system.cpu.iq: Attempting to schedule ready instructions from the IQ.
 342000: system.cpu.iq: Not able to schedule any instructions.
 342000: system.cpu.iq: [tid:0] Committing instructions older than [sn:41]
 342500: system.cpu.iq: Attempting to schedule ready instructions from the IQ.
 342500: system.cpu.iq: Not able to schedule any instructions.
 342500: system.cpu.iq: [tid:0] Committing instructions older than [sn:48]
 343000: global: [sn:66] has 1 ready out of 1 sources. RTI 0)
 343000: global: [sn:68] has 1 ready out of 1 sources. RTI 0)
 343000: global: [sn:71] has 1 ready out of 2 sources. RTI 0)
 343000: global: [sn:73] has 1 ready out of 2 sources. RTI 0)
 343000: system.cpu.iq: Attempting to schedule ready instructions from the IQ.
 343000: system.cpu.iq: Not able to schedule any instructions.
 343500: system.cpu.iq: Attempting to schedule ready instructions from the IQ.
 343500: system.cpu.iq: Not able to schedule any instructions.
 344000: system.cpu.iq: Adding instruction [sn:66] PC (0x41854c=>0x418550).(0=>1) to the IQ.
 344000: system.cpu.iq: Instruction is ready to issue, putting it onto the ready list, PC (0x41854c=>0x418550).(0=>1) opclass:47 [sn:66].
 344000: system.cpu.iq: Adding instruction [sn:67] PC (0x418550=>0x418554).(0=>1) to the IQ.
 344000: system.cpu.iq: Instruction is ready to issue, putting it onto the ready list, PC (0x418550=>0x418554).(0=>1) opclass:1 [sn:67].
 344000: system.cpu.iq: Adding instruction [sn:68] PC (0x418554=>0x418558).(0=>1) to the IQ.
 344000: system.cpu.iq: Instruction is ready to issue, putting it onto the ready list, PC (0x418554=>0x418558).(0=>1) opclass:47 [sn:68].
 344000: system.cpu.iq: Adding instruction [sn:69] PC (0x418558=>0x41855c).(0=>1) to the IQ.
 344000: system.cpu.iq: Instruction is ready to issue, putting it onto the ready list, PC (0x418558=>0x41855c).(0=>1) opclass:1 [sn:69].
 344000: system.cpu.iq: Adding instruction [sn:70] PC (0x41855c=>0x418560).(0=>1) to the IQ.
 344000: system.cpu.iq: Instruction is ready to issue, putting it onto the ready list, PC (0x41855c=>0x418560).(0=>1) opclass:1 [sn:70].
 344000: system.cpu.iq: Adding instruction [sn:71] PC (0x418560=>0x418564).(0=>1) to the IQ.
 344000: system.cpu.iq: Instruction PC (0x418560=>0x418564).(0=>1) has src reg 89 (IntRegClass) that is being added to the dependency chain.
 344000: system.cpu.iq: Adding instruction [sn:72] PC (0x418564=>0x418568).(0=>1) to the IQ.
 344000: system.cpu.iq: Instruction PC (0x418564=>0x418568).(0=>1) has src reg 88 (IntRegClass) that is being added to the dependency chain.
 344000: system.cpu.iq: Instruction PC (0x418564=>0x418568).(0=>1) has src reg 86 (IntRegClass) that is being added to the dependency chain.
 344000: system.cpu.iq: Adding instruction [sn:73] PC (0x418568=>0x41856c).(0=>1) to the IQ.
 344000: system.cpu.iq: Instruction PC (0x418568=>0x41856c).(0=>1) has src reg 90 (IntRegClass) that is being added to the dependency chain.
 344000: system.cpu.iq: Attempting to schedule ready instructions from the IQ.
 344000: system.cpu.iq: Thread 0: Issuing instruction PC (0x41854c=>0x418550).(0=>1) [sn:66]
 344000: system.cpu.iq: Thread 0: Issuing instruction PC (0x418550=>0x418554).(0=>1) [sn:67]
 344000: system.cpu.iq: Thread 0: Issuing instruction PC (0x418554=>0x418558).(0=>1) [sn:68]
 344000: system.cpu.iq: Thread 0: Issuing instruction PC (0x418558=>0x41855c).(0=>1) [sn:69]
 344000: system.cpu.iq: Thread 0: Issuing instruction PC (0x41855c=>0x418560).(0=>1) [sn:70]
 344500: system.cpu.iq: Memory inst [sn:68] PC (0x418554=>0x418558).(0=>1) is blocked, will be reissued later
 344500: system.cpu.iq: Waking dependents of completed instruction.
 344500: system.cpu.iq: Waking any dependents on register 87 (IntRegClass).
 344500: system.cpu.iq: Waking dependents of completed instruction.
 344500: system.cpu.iq: Waking any dependents on register 89 (IntRegClass).
 344500: system.cpu.iq: Waking up a dependent instruction, [sn:71] PC (0x418560=>0x418564).(0=>1).
 344500: global: [sn:71] has 2 ready out of 2 sources. RTI 0)
 344500: system.cpu.iq: Checking if memory instruction can issue.
 344500: system.cpu.iq: Instruction is ready to issue, putting it onto the ready list, PC (0x418560=>0x418564).(0=>1) opclass:48 [sn:71].
 344500: system.cpu.iq: Waking dependents of completed instruction.
 344500: system.cpu.iq: Waking any dependents on register 90 (IntRegClass).
 344500: system.cpu.iq: Waking up a dependent instruction, [sn:73] PC (0x418568=>0x41856c).(0=>1).
 344500: global: [sn:73] has 2 ready out of 2 sources. RTI 0)
 344500: system.cpu.iq: Checking if memory instruction can issue.
 344500: system.cpu.iq: Instruction is ready to issue, putting it onto the ready list, PC (0x418568=>0x41856c).(0=>1) opclass:48 [sn:73].
 344500: system.cpu.iq: Attempting to schedule ready instructions from the IQ.
 344500: system.cpu.iq: Thread 0: Issuing instruction PC (0x418560=>0x418564).(0=>1) [sn:71]
 344500: system.cpu.iq: Thread 0: Issuing instruction PC (0x418568=>0x41856c).(0=>1) [sn:73]
 344501: system.cpu.iq: Cache is unblocked, rescheduling blocked memory instructions
 345000: system.cpu.iq: Adding instruction [sn:74] PC (0x41856c=>0x418570).(0=>1) to the IQ.
 345000: system.cpu.iq: Instruction PC (0x41856c=>0x418570).(0=>1) has src reg 91 (IntRegClass) that is being added to the dependency chain.
 345000: system.cpu.iq: Adding instruction [sn:75] PC (0x418570=>0x418574).(0=>1) to the IQ.
 345000: system.cpu.iq: Instruction PC (0x418570=>0x418574).(0=>1) has src reg 87 (IntRegClass) that became ready before it reached the IQ.
 345000: global: [sn:75] has 1 ready out of 2 sources. RTI 0)
 345000: system.cpu.iq: Instruction PC (0x418570=>0x418574).(0=>1) has src reg 92 (IntRegClass) that is being added to the dependency chain.
 345000: system.cpu.iq: Adding instruction [sn:77] PC (0x418578=>0x41857c).(0=>1) to the IQ.
 345000: system.cpu.iq: Instruction PC (0x418578=>0x41857c).(0=>1) has src reg 92 (IntRegClass) that is being added to the dependency chain.
 345000: system.cpu.iq: Adding instruction [sn:78] PC (0x418578=>0x41857c).(1=>2) to the IQ.
 345000: system.cpu.iq: Instruction PC (0x418578=>0x41857c).(1=>2) has src reg 92 (IntRegClass) that is being added to the dependency chain.
 345000: system.cpu.iq: Adding instruction [sn:79] PC (0x41857c=>0x418580).(0=>1) to the IQ.
 345000: system.cpu.iq: Instruction PC (0x41857c=>0x418580).(0=>1) has src reg 93 (IntRegClass) that is being added to the dependency chain.
 345000: system.cpu.iq: Waking dependents of completed instruction.
 345000: system.cpu.iq: Completing mem instruction PC: (0x41854c=>0x418550).(0=>1) [sn:66]
 345000: system.cpu.iq: Waking any dependents on register 86 (IntRegClass).
 345000: system.cpu.iq: Waking up a dependent instruction, [sn:72] PC (0x418564=>0x418568).(0=>1).
 345000: global: [sn:72] has 1 ready out of 2 sources. RTI 0)
 345000: system.cpu.iq: Waking dependents of completed instruction.
 345000: system.cpu.iq: Completing mem instruction PC: (0x418560=>0x418564).(0=>1) [sn:71]
 345000: system.cpu.iq: Waking dependents of completed instruction.
 345000: system.cpu.iq: Completing mem instruction PC: (0x418568=>0x41856c).(0=>1) [sn:73]
 345000: system.cpu.iq: Attempting to schedule ready instructions from the IQ.
 345000: system.cpu.iq: Instruction is ready to issue, putting it onto the ready list, PC (0x418554=>0x418558).(0=>1) opclass:47 [sn:68].
 345000: system.cpu.iq: Thread 0: Issuing instruction PC (0x418554=>0x418558).(0=>1) [sn:68]
 345500: system.cpu.iq: Attempting to schedule ready instructions from the IQ.
 345500: system.cpu.iq: Not able to schedule any instructions.
 346000: system.cpu.iq: Attempting to schedule ready instructions from the IQ.
 346000: system.cpu.iq: Not able to schedule any instructions.
 346500: system.cpu.iq: Attempting to schedule ready instructions from the IQ.
 346500: system.cpu.iq: Not able to schedule any instructions.
 346500: system.cpu.iq: [tid:0] Committing instructions older than [sn:67]
 347000: system.cpu.iq: Attempting to schedule ready instructions from the IQ.
 347000: system.cpu.iq: Not able to schedule any instructions.
 347500: system.cpu.iq: Attempting to schedule ready instructions from the IQ.
 347500: system.cpu.iq: Not able to schedule any instructions.
 348000: system.cpu.iq: Attempting to schedule ready instructions from the IQ.
 348000: system.cpu.iq: Not able to schedule any instructions.
 348500: system.cpu.iq: Attempting to schedule ready instructions from the IQ.
 348500: system.cpu.iq: Not able to schedule any instructions.
 349000: system.cpu.iq: Attempting to schedule ready instructions from the IQ.
 349000: system.cpu.iq: Not able to schedule any instructions.
 349500: system.cpu.iq: Attempting to schedule ready instructions from the IQ.
 349500: system.cpu.iq: Not able to schedule any instructions.
 350000: system.cpu.iq: Attempting to schedule ready instructions from the IQ.
 350000: system.cpu.iq: Not able to schedule any instructions.
 350500: system.cpu.iq: Attempting to schedule ready instructions from the IQ.
 350500: system.cpu.iq: Not able to schedule any instructions.
 351000: system.cpu.iq: Attempting to schedule ready instructions from the IQ.
 351000: system.cpu.iq: Not able to schedule any instructions.
 351500: system.cpu.iq: Attempting to schedule ready instructions from the IQ.
 351500: system.cpu.iq: Not able to schedule any instructions.
 352000: system.cpu.iq: Attempting to schedule ready instructions from the IQ.
 352000: system.cpu.iq: Not able to schedule any instructions.
 397000: system.cpu.iq: Attempting to schedule ready instructions from the IQ.
 397000: system.cpu.iq: Not able to schedule any instructions.
 397500: system.cpu.iq: Attempting to schedule ready instructions from the IQ.
 397500: system.cpu.iq: Not able to schedule any instructions.
 398000: system.cpu.iq: Attempting to schedule ready instructions from the IQ.
 398000: system.cpu.iq: Not able to schedule any instructions.
 398500: system.cpu.iq: Attempting to schedule ready instructions from the IQ.
 398500: system.cpu.iq: Not able to schedule any instructions.
 399000: system.cpu.iq: Instruction [sn:72],src reg idx 88,isWaiting: 1
 399000: system.cpu.iq: Adding instruction [sn:80] PC (0x418580=>0x418584).(0=>1) to the IQ.
 399000: system.cpu.iq: Instruction is ready to issue, putting it onto the ready list, PC (0x418580=>0x418584).(0=>1) opclass:1 [sn:80].
 399000: system.cpu.iq: Moved instruction [sn:72] PC (0x418564=>0x418568).(0=>1) to WIB.
 399000: system.cpu.iq: Moved dependent instruction [sn:74] PC (0x41856c=>0x418570).(0=>1) to WIB.
 399000: system.cpu.iq: Attempting to schedule ready instructions from the IQ.
 399000: system.cpu.iq: Thread 0: Issuing instruction PC (0x418580=>0x418584).(0=>1) [sn:80]
 399500: system.cpu.iq: Waking dependents of completed instruction.
 399500: system.cpu.iq: Waking any dependents on register 95 (IntRegClass).
 399500: system.cpu.iq: Attempting to schedule ready instructions from the IQ.
 399500: system.cpu.iq: Not able to schedule any instructions.
 400000: system.cpu.iq: Attempting to schedule ready instructions from the IQ.
 400000: system.cpu.iq: Not able to schedule any instructions.
 400500: system.cpu.iq: Attempting to schedule ready instructions from the IQ.
 400500: system.cpu.iq: Not able to schedule any instructions.
 401000: system.cpu.iq: Attempting to schedule ready instructions from the IQ.
 401000: system.cpu.iq: Not able to schedule any instructions.
 401500: system.cpu.iq: Attempting to schedule ready instructions from the IQ.
 401500: system.cpu.iq: Not able to schedule any instructions.
 402000: system.cpu.iq: Attempting to schedule ready instructions from the IQ.
 402000: system.cpu.iq: Not able to schedule any instructions.
 402500: system.cpu.iq: Attempting to schedule ready instructions from the IQ.
 402500: system.cpu.iq: Not able to schedule any instructions.
 403000: system.cpu.iq: Attempting to schedule ready instructions from the IQ.
 403000: system.cpu.iq: Not able to schedule any instructions.
 403500: system.cpu.iq: Attempting to schedule ready instructions from the IQ.
 403500: system.cpu.iq: Not able to schedule any instructions.
 404000: system.cpu.iq: Attempting to schedule ready instructions from the IQ.
 404000: system.cpu.iq: Not able to schedule any instructions.
 404500: system.cpu.iq: Attempting to schedule ready instructions from the IQ.
 404500: system.cpu.iq: Not able to schedule any instructions.
 414500: system.cpu.iq: Attempting to schedule ready instructions from the IQ.
 414500: system.cpu.iq: Not able to schedule any instructions.
 415000: system.cpu.iq: Attempting to schedule ready instructions from the IQ.
 415000: system.cpu.iq: Not able to schedule any instructions.
 415500: system.cpu.iq: Attempting to schedule ready instructions from the IQ.
 415500: system.cpu.iq: Not able to schedule any instructions.
 416000: system.cpu.iq: Attempting to schedule ready instructions from the IQ.
 416000: system.cpu.iq: Not able to schedule any instructions.
 416500: system.cpu.iq: Attempting to schedule ready instructions from the IQ.
 416500: system.cpu.iq: Not able to schedule any instructions.
 417000: system.cpu.iq: Attempting to schedule ready instructions from the IQ.
 417000: system.cpu.iq: Not able to schedule any instructions.
 417500: system.cpu.iq: Attempting to schedule ready instructions from the IQ.
 417500: system.cpu.iq: Not able to schedule any instructions.
 418000: system.cpu.iq: Attempting to schedule ready instructions from the IQ.
 418000: system.cpu.iq: Not able to schedule any instructions.
 418500: system.cpu.iq: Attempting to schedule ready instructions from the IQ.
 418500: system.cpu.iq: Not able to schedule any instructions.
 419000: system.cpu.iq: Attempting to schedule ready instructions from the IQ.
 419000: system.cpu.iq: Not able to schedule any instructions.
 419500: system.cpu.iq: Attempting to schedule ready instructions from the IQ.
 419500: system.cpu.iq: Not able to schedule any instructions.
 420000: system.cpu.iq: Waking dependents of completed instruction.
 420000: system.cpu.iq: Completing mem instruction PC: (0x418554=>0x418558).(0=>1) [sn:68]
 420000: system.cpu.iq: Waking any dependents on register 88 (IntRegClass).
 420000: system.cpu.iq: Waking up a dependent instruction, [sn:72] PC (0x418564=>0x418568).(0=>1).
 420000: global: [sn:72] has 2 ready out of 2 sources. RTI 0)
 420000: system.cpu.iq: Instruction is ready to issue, putting it onto the ready list, PC (0x418564=>0x418568).(0=>1) opclass:1 [sn:72].
 420000: system.cpu.iq: Removed instruction [sn:72] PC (0x418564=>0x418568).(0=>1) from WIB.
 420000: system.cpu.iq: Attempting to schedule ready instructions from the IQ.
 420000: system.cpu.iq: Thread 0: Issuing instruction PC (0x418564=>0x418568).(0=>1) [sn:72]
 420500: system.cpu.iq: Waking dependents of completed instruction.
 420500: system.cpu.iq: Waking any dependents on register 91 (IntRegClass).
 420500: system.cpu.iq: Waking up a dependent instruction, [sn:74] PC (0x41856c=>0x418570).(0=>1).
 420500: global: [sn:74] has 1 ready out of 1 sources. RTI 0)
 420500: system.cpu.iq: Instruction is ready to issue, putting it onto the ready list, PC (0x41856c=>0x418570).(0=>1) opclass:1 [sn:74].
 420500: system.cpu.iq: Removed instruction [sn:74] PC (0x41856c=>0x418570).(0=>1) from WIB.
 420500: system.cpu.iq: Attempting to schedule ready instructions from the IQ.
 420500: system.cpu.iq: Thread 0: Issuing instruction PC (0x41856c=>0x418570).(0=>1) [sn:74]
 421000: system.cpu.iq: Waking dependents of completed instruction.
 421000: system.cpu.iq: Waking any dependents on register 92 (IntRegClass).
 421000: system.cpu.iq: Waking up a dependent instruction, [sn:78] PC (0x418578=>0x41857c).(1=>2).
 421000: global: [sn:78] has 1 ready out of 1 sources. RTI 0)
 421000: system.cpu.iq: Instruction is ready to issue, putting it onto the ready list, PC (0x418578=>0x41857c).(1=>2) opclass:1 [sn:78].
 421000: system.cpu.iq: Waking up a dependent instruction, [sn:77] PC (0x418578=>0x41857c).(0=>1).
 421000: global: [sn:77] has 1 ready out of 1 sources. RTI 0)
 421000: system.cpu.iq: Checking if memory instruction can issue.
 421000: system.cpu.iq: Instruction is ready to issue, putting it onto the ready list, PC (0x418578=>0x41857c).(0=>1) opclass:47 [sn:77].
 421000: system.cpu.iq: Waking up a dependent instruction, [sn:75] PC (0x418570=>0x418574).(0=>1).
 421000: global: [sn:75] has 2 ready out of 2 sources. RTI 0)
 421000: system.cpu.iq: Checking if memory instruction can issue.
[...]
1172000: system.cpu.iq: Instruction PC (0x43f74c=>0x43f750).(0=>1) has src reg 78 (CCRegClass) that is being added to the dependency chain.
1172000: system.cpu.iq: Instruction PC (0x43f74c=>0x43f750).(0=>1) has src reg 80 (CCRegClass) that is being added to the dependency chain.
1172000: system.cpu.iq: Instruction PC (0x43f74c=>0x43f750).(0=>1) has src reg 79 (CCRegClass) that is being added to the dependency chain.
1172000: system.cpu.iq: Adding instruction [sn:380] PC (0x43f750=>0x43f754).(0=>1) to the IQ.
1172000: system.cpu.iq: Instruction PC (0x43f750=>0x43f754).(0=>1) has src reg 182 (IntRegClass) that is being added to the dependency chain.
1172000: system.cpu.iq: Adding instruction [sn:381] PC (0x43f754=>0x43f758).(0=>1) to the IQ.
1172000: system.cpu.iq: Instruction PC (0x43f754=>0x43f758).(0=>1) has src reg 81 (CCRegClass) that is being added to the dependency chain.
1172000: system.cpu.iq: Instruction PC (0x43f754=>0x43f758).(0=>1) has src reg 83 (CCRegClass) that is being added to the dependency chain.
1172000: system.cpu.iq: Instruction PC (0x43f754=>0x43f758).(0=>1) has src reg 82 (CCRegClass) that is being added to the dependency chain.
1172000: system.cpu.iq: Adding instruction [sn:382] PC (0x43f758=>0x43f75c).(0=>1) to the IQ.
1172000: system.cpu.iq: Instruction is ready to issue, putting it onto the ready list, PC (0x43f758=>0x43f75c).(0=>1) opclass:1 [sn:382].
1172000: system.cpu.iq: Adding instruction [sn:383] PC (0x43f75c=>0x43f760).(0=>1) to the IQ.
1172000: system.cpu.iq: Instruction PC (0x43f75c=>0x43f760).(0=>1) has src reg 184 (IntRegClass) that is being added to the dependency chain.
1172000: system.cpu.iq: Attempting to schedule ready instructions from the IQ.
1172000: system.cpu.iq: Thread 0: Issuing instruction PC (0x43f758=>0x43f75c).(0=>1) [sn:382]
1172000: system.cpu.iq: [tid:0] Committing instructions older than [sn:366]
1172500: system.cpu.iq: Adding instruction [sn:384] PC (0x43f760=>0x43f764).(0=>1) to the IQ.
1172500: system.cpu.iq: Instruction PC (0x43f760=>0x43f764).(0=>1) has src reg 183 (IntRegClass) that became ready before it reached the IQ.
1172500: global: [sn:384] has 1 ready out of 1 sources. RTI 0)
1172500: system.cpu.iq: Instruction is ready to issue, putting it onto the ready list, PC (0x43f760=>0x43f764).(0=>1) opclass:47 [sn:384].
1172500: system.cpu.iq: Adding instruction [sn:385] PC (0x43f764=>0x43f768).(0=>1) to the IQ.
1172500: system.cpu.iq: Instruction PC (0x43f764=>0x43f768).(0=>1) has src reg 185 (IntRegClass) that is being added to the dependency chain.
1172500: system.cpu.iq: Adding instruction [sn:386] PC (0x43f768=>0x43f76c).(0=>1) to the IQ.
1172500: system.cpu.iq: Instruction PC (0x43f768=>0x43f76c).(0=>1) has src reg 183 (IntRegClass) that became ready before it reached the IQ.
1172500: global: [sn:386] has 1 ready out of 1 sources. RTI 0)
1172500: system.cpu.iq: Instruction is ready to issue, putting it onto the ready list, PC (0x43f768=>0x43f76c).(0=>1) opclass:47 [sn:386].
1172500: system.cpu.iq: Adding instruction [sn:387] PC (0x43f768=>0x43f76c).(1=>2) to the IQ.
1172500: system.cpu.iq: Instruction PC (0x43f768=>0x43f76c).(1=>2) has src reg 183 (IntRegClass) that became ready before it reached the IQ.
1172500: global: [sn:387] has 1 ready out of 1 sources. RTI 0)
1172500: system.cpu.iq: Instruction is ready to issue, putting it onto the ready list, PC (0x43f768=>0x43f76c).(1=>2) opclass:1 [sn:387].
1172500: system.cpu.iq: Adding instruction [sn:388] PC (0x43f76c=>0x43f770).(0=>1) to the IQ.
1172500: system.cpu.iq: Instruction PC (0x43f76c=>0x43f770).(0=>1) has src reg 186 (IntRegClass) that is being added to the dependency chain.
1172500: system.cpu.iq: Adding instruction [sn:389] PC (0x43f770=>0x43f774).(0=>1) to the IQ.
1172500: system.cpu.iq: Instruction is ready to issue, putting it onto the ready list, PC (0x43f770=>0x43f774).(0=>1) opclass:1 [sn:389].
1172500: system.cpu.iq: Adding instruction [sn:390] PC (0x43f774=>0x43f778).(0=>1) to the IQ.
1172500: system.cpu.iq: Instruction is ready to issue, putting it onto the ready list, PC (0x43f774=>0x43f778).(0=>1) opclass:1 [sn:390].
1172500: system.cpu.iq: Adding instruction [sn:391] PC (0x43f778=>0x43f77c).(0=>1) to the IQ.
1172500: system.cpu.iq: Instruction is ready to issue, putting it onto the ready list, PC (0x43f778=>0x43f77c).(0=>1) opclass:48 [sn:391].
1172500: system.cpu.iq: Waking dependents of completed instruction.
1172500: system.cpu.iq: Completing mem instruction PC: (0x43f728=>0x43f72c).(0=>1) [sn:369]
1172500: system.cpu.iq: Waking any dependents on register 182 (IntRegClass).
1172500: system.cpu.iq: Waking up a dependent instruction, [sn:380] PC (0x43f750=>0x43f754).(0=>1).
1172500: global: [sn:380] has 1 ready out of 1 sources. RTI 0)
1172500: system.cpu.iq: Instruction is ready to issue, putting it onto the ready list, PC (0x43f750=>0x43f754).(0=>1) opclass:1 [sn:380].
1172500: system.cpu.iq: Waking up a dependent instruction, [sn:378] PC (0x43f748=>0x43f74c).(0=>1).
1172500: global: [sn:378] has 1 ready out of 1 sources. RTI 0)
1172500: system.cpu.iq: Instruction is ready to issue, putting it onto the ready list, PC (0x43f748=>0x43f74c).(0=>1) opclass:1 [sn:378].
1172500: system.cpu.iq: Waking up a dependent instruction, [sn:375] PC (0x43f73c=>0x43f740).(0=>1).
1172500: global: [sn:375] has 1 ready out of 1 sources. RTI 0)
1172500: system.cpu.iq: Instruction is ready to issue, putting it onto the ready list, PC (0x43f73c=>0x43f740).(0=>1) opclass:1 [sn:375].
1172500: system.cpu.iq: Waking up a dependent instruction, [sn:372] PC (0x43f730=>0x43f734).(0=>1).
1172500: global: [sn:372] has 1 ready out of 1 sources. RTI 0)
1172500: system.cpu.iq: Instruction is ready to issue, putting it onto the ready list, PC (0x43f730=>0x43f734).(0=>1) opclass:1 [sn:372].
1172500: system.cpu.iq: Waking up a dependent instruction, [sn:371] PC (0x43f72c=>0x43f730).(0=>1).
1172500: global: [sn:371] has 1 ready out of 1 sources. RTI 0)
1172500: system.cpu.iq: Instruction is ready to issue, putting it onto the ready list, PC (0x43f72c=>0x43f730).(0=>1) opclass:1 [sn:371].
1172500: system.cpu.iq: Waking dependents of completed instruction.
1172500: system.cpu.iq: Waking any dependents on register 184 (IntRegClass).
1172500: system.cpu.iq: Waking up a dependent instruction, [sn:383] PC (0x43f75c=>0x43f760).(0=>1).
1172500: global: [sn:383] has 2 ready out of 2 sources. RTI 0)
1172500: system.cpu.iq: Checking if memory instruction can issue.
1172500: system.cpu.iq: Instruction is ready to issue, putting it onto the ready list, PC (0x43f75c=>0x43f760).(0=>1) opclass:48 [sn:383].
1172500: system.cpu.iq: Attempting to schedule ready instructions from the IQ.
1172500: system.cpu.iq: Thread 0: Issuing instruction PC (0x43f72c=>0x43f730).(0=>1) [sn:371]
1172500: system.cpu.iq: Thread 0: Issuing instruction PC (0x43f730=>0x43f734).(0=>1) [sn:372]
1172500: system.cpu.iq: Thread 0: Issuing instruction PC (0x43f73c=>0x43f740).(0=>1) [sn:375]
1172500: system.cpu.iq: Thread 0: Issuing instruction PC (0x43f748=>0x43f74c).(0=>1) [sn:378]
1172500: system.cpu.iq: Thread 0: Issuing instruction PC (0x43f750=>0x43f754).(0=>1) [sn:380]
1172500: system.cpu.iq: Thread 0: Issuing instruction PC (0x43f75c=>0x43f760).(0=>1) [sn:383]
1172500: system.cpu.iq: Thread 0: Issuing instruction PC (0x43f760=>0x43f764).(0=>1) [sn:384]
1172500: system.cpu.iq: Thread 0: Issuing instruction PC (0x43f768=>0x43f76c).(0=>1) [sn:386]
1173000: global: [sn:393] has 1 ready out of 2 sources. RTI 0)
1173000: global: [sn:393] has 2 ready out of 2 sources. RTI 0)
1173000: global: [sn:394] has 1 ready out of 1 sources. RTI 0)
1173000: global: [sn:395] has 1 ready out of 2 sources. RTI 0)
1173000: global: [sn:395] has 2 ready out of 2 sources. RTI 0)
1173000: global: [sn:396] has 1 ready out of 1 sources. RTI 0)
1173000: global: [sn:397] has 1 ready out of 2 sources. RTI 0)
1173000: global: [sn:397] has 2 ready out of 2 sources. RTI 0)
1173000: global: [sn:398] has 1 ready out of 1 sources. RTI 0)
1173000: global: [sn:399] has 1 ready out of 2 sources. RTI 0)
1173000: global: [sn:399] has 2 ready out of 2 sources. RTI 0)
1173000: global: [sn:400] has 1 ready out of 1 sources. RTI 0)
1173000: system.cpu.iq: Adding instruction [sn:392] PC (0x43f77c=>0x43f780).(0=>1) to the IQ.
1173000: system.cpu.iq: Instruction is ready to issue, putting it onto the ready list, PC (0x43f77c=>0x43f780).(0=>1) opclass:1 [sn:392].
1173000: system.cpu.iq: Waking dependents of completed instruction.
1173000: system.cpu.iq: Waking dependents of completed instruction.
1173000: system.cpu.iq: Reg 65535 [1173000: system.cpu.iq: Waking any dependents on register 72 (CCRegClass).
1173000: system.cpu.iq: Waking up a dependent instruction, [sn:374] PC (0x43f738=>0x43f73c).(0=>1).
1173000: global: [sn:374] has 1 ready out of 3 sources. RTI 0)
1173000: system.cpu.iq: Waking up a dependent instruction, [sn:373] PC (0x43f734=>0x43f738).(0=>1).
1173000: global: [sn:373] has 1 ready out of 3 sources. RTI 0)
1173000: system.cpu.iq: Waking any dependents on register 73 (CCRegClass).
1173000: system.cpu.iq: Waking up a dependent instruction, [sn:374] PC (0x43f738=>0x43f73c).(0=>1).
1173000: global: [sn:374] has 2 ready out of 3 sources. RTI 0)
1173000: system.cpu.iq: Waking up a dependent instruction, [sn:373] PC (0x43f734=>0x43f738).(0=>1).
1173000: global: [sn:373] has 2 ready out of 3 sources. RTI 0)
1173000: system.cpu.iq: Waking any dependents on register 74 (CCRegClass).
1173000: system.cpu.iq: Waking up a dependent instruction, [sn:374] PC (0x43f738=>0x43f73c).(0=>1).
1173000: global: [sn:374] has 3 ready out of 3 sources. RTI 0)
1173000: system.cpu.iq: Instruction is ready to issue, putting it onto the ready list, PC (0x43f738=>0x43f73c).(0=>1) opclass:1 [sn:374].
1173000: system.cpu.iq: Waking up a dependent instruction, [sn:373] PC (0x43f734=>0x43f738).(0=>1).
1173000: global: [sn:373] has 3 ready out of 3 sources. RTI 0)
1173000: system.cpu.iq: Instruction is ready to issue, putting it onto the ready list, PC (0x43f734=>0x43f738).(0=>1) opclass:1 [sn:373].
1173000: system.cpu.iq: Waking dependents of completed instruction.
1173000: system.cpu.iq: Reg 65535 [1173000: system.cpu.iq: Waking any dependents on register 75 (CCRegClass).
1173000: system.cpu.iq: Waking up a dependent instruction, [sn:377] PC (0x43f744=>0x43f748).(0=>1).
1173000: global: [sn:377] has 1 ready out of 3 sources. RTI 0)
1173000: system.cpu.iq: Waking up a dependent instruction, [sn:376] PC (0x43f740=>0x43f744).(0=>1).
1173000: global: [sn:376] has 1 ready out of 3 sources. RTI 0)
1173000: system.cpu.iq: Waking any dependents on register 76 (CCRegClass).
1173000: system.cpu.iq: Waking up a dependent instruction, [sn:377] PC (0x43f744=>0x43f748).(0=>1).
1173000: global: [sn:377] has 2 ready out of 3 sources. RTI 0)
1173000: system.cpu.iq: Waking up a dependent instruction, [sn:376] PC (0x43f740=>0x43f744).(0=>1).
1173000: global: [sn:376] has 2 ready out of 3 sources. RTI 0)
1173000: system.cpu.iq: Waking any dependents on register 77 (CCRegClass).
1173000: system.cpu.iq: Waking up a dependent instruction, [sn:377] PC (0x43f744=>0x43f748).(0=>1).
1173000: global: [sn:377] has 3 ready out of 3 sources. RTI 0)
1173000: system.cpu.iq: Instruction is ready to issue, putting it onto the ready list, PC (0x43f744=>0x43f748).(0=>1) opclass:1 [sn:377].
1173000: system.cpu.iq: Waking up a dependent instruction, [sn:376] PC (0x43f740=>0x43f744).(0=>1).
1173000: global: [sn:376] has 3 ready out of 3 sources. RTI 0)
1173000: system.cpu.iq: Instruction is ready to issue, putting it onto the ready list, PC (0x43f740=>0x43f744).(0=>1) opclass:1 [sn:376].
1173000: system.cpu.iq: Waking dependents of completed instruction.
1173000: system.cpu.iq: Reg 65535 [1173000: system.cpu.iq: Waking any dependents on register 78 (CCRegClass).
1173000: system.cpu.iq: Waking up a dependent instruction, [sn:379] PC (0x43f74c=>0x43f750).(0=>1).
1173000: global: [sn:379] has 1 ready out of 3 sources. RTI 0)
1173000: system.cpu.iq: Waking any dependents on register 79 (CCRegClass).
1173000: system.cpu.iq: Waking up a dependent instruction, [sn:379] PC (0x43f74c=>0x43f750).(0=>1).
1173000: global: [sn:379] has 2 ready out of 3 sources. RTI 0)
1173000: system.cpu.iq: Waking any dependents on register 80 (CCRegClass).
1173000: system.cpu.iq: Waking up a dependent instruction, [sn:379] PC (0x43f74c=>0x43f750).(0=>1).
1173000: global: [sn:379] has 3 ready out of 3 sources. RTI 0)
1173000: system.cpu.iq: Instruction is ready to issue, putting it onto the ready list, PC (0x43f74c=>0x43f750).(0=>1) opclass:1 [sn:379].
1173000: system.cpu.iq: Waking dependents of completed instruction.
1173000: system.cpu.iq: Reg 65535 [1173000: system.cpu.iq: Waking any dependents on register 81 (CCRegClass).
1173000: system.cpu.iq: Waking up a dependent instruction, [sn:381] PC (0x43f754=>0x43f758).(0=>1).
1173000: global: [sn:381] has 1 ready out of 3 sources. RTI 0)
1173000: system.cpu.iq: Waking any dependents on register 82 (CCRegClass).
1173000: system.cpu.iq: Waking up a dependent instruction, [sn:381] PC (0x43f754=>0x43f758).(0=>1).
1173000: global: [sn:381] has 2 ready out of 3 sources. RTI 0)
1173000: system.cpu.iq: Waking any dependents on register 83 (CCRegClass).
1173000: system.cpu.iq: Waking up a dependent instruction, [sn:381] PC (0x43f754=>0x43f758).(0=>1).
1173000: global: [sn:381] has 3 ready out of 3 sources. RTI 0)
1173000: system.cpu.iq: Instruction is ready to issue, putting it onto the ready list, PC (0x43f754=>0x43f758).(0=>1) opclass:1 [sn:381].
1173000: system.cpu.iq: Waking dependents of completed instruction.
1173000: system.cpu.iq: Completing mem instruction PC: (0x43f75c=>0x43f760).(0=>1) [sn:383]
1173000: system.cpu.iq: Attempting to schedule ready instructions from the IQ.
1173000: system.cpu.iq: Thread 0: Issuing instruction PC (0x43f734=>0x43f738).(0=>1) [sn:373]
1173000: system.cpu.iq: Thread 0: Issuing instruction PC (0x43f738=>0x43f73c).(0=>1) [sn:374]
1173000: system.cpu.iq: Thread 0: Issuing instruction PC (0x43f740=>0x43f744).(0=>1) [sn:376]
1173000: system.cpu.iq: Thread 0: Issuing instruction PC (0x43f744=>0x43f748).(0=>1) [sn:377]
1173000: system.cpu.iq: Thread 0: Issuing instruction PC (0x43f74c=>0x43f750).(0=>1) [sn:379]
1173000: system.cpu.iq: Thread 0: Issuing instruction PC (0x43f754=>0x43f758).(0=>1) [sn:381]
1173000: system.cpu.iq: Thread 0: Issuing instruction PC (0x43f778=>0x43f77c).(0=>1) [sn:391]
1173500: global: [sn:401] has 1 ready out of 1 sources. RTI 0)
1173500: global: [sn:402] has 1 ready out of 2 sources. RTI 0)
1173500: global: [sn:403] has 1 ready out of 1 sources. RTI 0)
1173500: global: [sn:405] has 1 ready out of 1 sources. RTI 0)
1173500: global: [sn:406] has 1 ready out of 2 sources. RTI 0)
1173500: global: [sn:407] has 1 ready out of 1 sources. RTI 0)
1173500: system.cpu.iq: Waking dependents of completed instruction.
1173500: system.cpu.iq: Waking dependents of completed instruction.
1173500: system.cpu.iq: Waking dependents of completed instruction.
1173500: system.cpu.iq: Waking dependents of completed instruction.
1173500: system.cpu.iq: Waking dependents of completed instruction.
1173500: system.cpu.iq: Waking dependents of completed instruction.
1173500: system.cpu.iq: Waking dependents of completed instruction.
1173500: system.cpu.iq: Completing mem instruction PC: (0x43f778=>0x43f77c).(0=>1) [sn:391]
1173500: system.cpu.iq: Attempting to schedule ready instructions from the IQ.
1173500: system.cpu.iq: Thread 0: Issuing instruction PC (0x43f768=>0x43f76c).(1=>2) [sn:387]
1173500: system.cpu.iq: Thread 0: Issuing instruction PC (0x43f770=>0x43f774).(0=>1) [sn:389]
1173500: system.cpu.iq: Thread 0: Issuing instruction PC (0x43f774=>0x43f778).(0=>1) [sn:390]
1173500: system.cpu.iq: Thread 0: Issuing instruction PC (0x43f77c=>0x43f780).(0=>1) [sn:392]
1174000: system.cpu.iq: Instruction [sn:385],src reg idx 185,isWaiting: 1
1174000: system.cpu.iq: Instruction [sn:388],src reg idx 186,isWaiting: 1
1174000: system.cpu.iq: Adding instruction [sn:393] PC (0x43f780=>0x43f784).(0=>1) to the IQ.
1174000: system.cpu.iq: Instruction is ready to issue, putting it onto the ready list, PC (0x43f780=>0x43f784).(0=>1) opclass:48 [sn:393].
1174000: system.cpu.iq: Moved instruction [sn:385] PC (0x43f764=>0x43f768).(0=>1) to WIB.
1174000: system.cpu.iq: Moved instruction [sn:388] PC (0x43f76c=>0x43f770).(0=>1) to WIB.
1174000: system.cpu.iq: Adding instruction [sn:394] PC (0x43f784=>0x43f788).(0=>1) to the IQ.
1174000: system.cpu.iq: Instruction is ready to issue, putting it onto the ready list, PC (0x43f784=>0x43f788).(0=>1) opclass:1 [sn:394].
1174000: system.cpu.iq: Adding instruction [sn:395] PC (0x43f788=>0x43f78c).(0=>1) to the IQ.
1174000: system.cpu.iq: Instruction is ready to issue, putting it onto the ready list, PC (0x43f788=>0x43f78c).(0=>1) opclass:48 [sn:395].
1174000: system.cpu.iq: Adding instruction [sn:396] PC (0x43f78c=>0x43f790).(0=>1) to the IQ.
1174000: system.cpu.iq: Instruction is ready to issue, putting it onto the ready list, PC (0x43f78c=>0x43f790).(0=>1) opclass:1 [sn:396].
1174000: system.cpu.iq: Adding instruction [sn:397] PC (0x43f790=>0x43f794).(0=>1) to the IQ.
1174000: system.cpu.iq: Instruction is ready to issue, putting it onto the ready list, PC (0x43f790=>0x43f794).(0=>1) opclass:48 [sn:397].
1174000: system.cpu.iq: Adding instruction [sn:398] PC (0x43f794=>0x43f798).(0=>1) to the IQ.
1174000: system.cpu.iq: Instruction is ready to issue, putting it onto the ready list, PC (0x43f794=>0x43f798).(0=>1) opclass:1 [sn:398].
1174000: system.cpu.iq: Adding instruction [sn:399] PC (0x43f798=>0x43f79c).(0=>1) to the IQ.
1174000: system.cpu.iq: Instruction is ready to issue, putting it onto the ready list, PC (0x43f798=>0x43f79c).(0=>1) opclass:48 [sn:399].
1174000: system.cpu.iq: Adding instruction [sn:400] PC (0x43f79c=>0x43f7a0).(0=>1) to the IQ.
1174000: system.cpu.iq: Instruction is ready to issue, putting it onto the ready list, PC (0x43f79c=>0x43f7a0).(0=>1) opclass:1 [sn:400].
1174000: system.cpu.iq: Waking dependents of completed instruction.
1174000: system.cpu.iq: Waking any dependents on register 187 (IntRegClass).
1174000: system.cpu.iq: Waking dependents of completed instruction.
1174000: system.cpu.iq: Waking dependents of completed instruction.
1174000: system.cpu.iq: Waking dependents of completed instruction.
1174000: system.cpu.iq: Attempting to schedule ready instructions from the IQ.
1174000: system.cpu.iq: Thread 0: Issuing instruction PC (0x43f780=>0x43f784).(0=>1) [sn:393]
1174000: system.cpu.iq: Thread 0: Issuing instruction PC (0x43f784=>0x43f788).(0=>1) [sn:394]
1174000: system.cpu.iq: Thread 0: Issuing instruction PC (0x43f788=>0x43f78c).(0=>1) [sn:395]
1174000: system.cpu.iq: Thread 0: Issuing instruction PC (0x43f78c=>0x43f790).(0=>1) [sn:396]
1174000: system.cpu.iq: Thread 0: Issuing instruction PC (0x43f790=>0x43f794).(0=>1) [sn:397]
1174000: system.cpu.iq: Thread 0: Issuing instruction PC (0x43f794=>0x43f798).(0=>1) [sn:398]
1174000: system.cpu.iq: Thread 0: Issuing instruction PC (0x43f798=>0x43f79c).(0=>1) [sn:399]
1174000: system.cpu.iq: Thread 0: Issuing instruction PC (0x43f79c=>0x43f7a0).(0=>1) [sn:400]
1174000: system.cpu.iq: [tid:0] Committing instructions older than [sn:370]
1174500: system.cpu.iq: [tid:0] Starting to squash instructions in the IQ.
1174500: system.cpu.iq: [tid:0] Squashing until sequence number 381!
1174500: system.cpu.iq: [tid:0] Instruction [sn:399] PC (0x43f798=>0x43f79c).(0=>1) squashed.
1174500: system.cpu.iq: [tid:0] Instruction [sn:397] PC (0x43f790=>0x43f794).(0=>1) squashed.
1174500: system.cpu.iq: [tid:0] Instruction [sn:395] PC (0x43f788=>0x43f78c).(0=>1) squashed.
1174500: system.cpu.iq: [tid:0] Instruction [sn:393] PC (0x43f780=>0x43f784).(0=>1) squashed.
1174500: system.cpu.iq: [tid:0] Instruction [sn:386] PC (0x43f768=>0x43f76c).(0=>1) squashed.
